Version 4
SHEET 1 1992 984
WIRE 944 -224 736 -224
WIRE 1216 -208 1152 -208
WIRE 1360 -208 1296 -208
WIRE 736 -144 736 -224
WIRE 800 -144 736 -144
WIRE 944 -128 944 -224
WIRE 944 -128 864 -128
WIRE 1056 -128 944 -128
WIRE 1152 -128 1152 -208
WIRE 1152 -128 1136 -128
WIRE 1216 -128 1152 -128
WIRE -800 -112 -976 -112
WIRE -480 -112 -576 -112
WIRE -128 -112 -480 -112
WIRE 112 -112 -64 -112
WIRE 272 -112 192 -112
WIRE 480 -112 352 -112
WIRE 800 -112 528 -112
WIRE 1360 -112 1360 -208
WIRE 1360 -112 1280 -112
WIRE 1392 -112 1360 -112
WIRE 1216 -96 1168 -96
WIRE -800 -32 -896 -32
WIRE -512 -32 -576 -32
WIRE -448 -32 -512 -32
WIRE -384 -32 -448 -32
WIRE 1168 -32 1168 -96
WIRE 480 16 480 -112
WIRE 528 16 528 -112
WIRE 528 16 480 16
WIRE -800 48 -896 48
WIRE -384 48 -576 48
WIRE -976 80 -976 -112
WIRE -976 80 -992 80
WIRE -896 80 -896 48
WIRE -384 80 -384 48
WIRE 1072 80 720 80
WIRE -512 96 -512 -32
WIRE 256 112 48 112
WIRE 304 112 256 112
WIRE 400 112 384 112
WIRE 480 112 480 16
WIRE 256 128 256 112
WIRE 720 128 720 80
WIRE 800 128 720 128
WIRE 1072 144 1072 80
WIRE 1072 144 864 144
WIRE 1088 144 1072 144
WIRE 528 160 528 16
WIRE 800 160 528 160
WIRE 48 176 48 112
WIRE 80 176 48 176
WIRE -512 192 -512 160
WIRE -384 192 -384 160
WIRE 256 192 144 192
WIRE -896 208 -896 160
WIRE 80 208 0 208
WIRE 480 224 480 112
WIRE -976 320 -976 80
WIRE -736 320 -976 320
WIRE -416 320 -512 320
WIRE 0 320 0 208
WIRE 0 320 -416 320
WIRE 480 336 480 288
WIRE -736 400 -832 400
WIRE -448 400 -512 400
WIRE -400 400 -448 400
WIRE -320 400 -400 400
WIRE -736 480 -832 480
WIRE -320 480 -512 480
WIRE -832 512 -832 480
WIRE -320 512 -320 480
WIRE -448 528 -448 400
WIRE -448 624 -448 592
WIRE -320 624 -320 592
WIRE -832 640 -832 592
FLAG 480 336 0
FLAG 1088 144 OUTPUT_shape+
IOPIN 1088 144 Out
FLAG -896 -32 0
FLAG -512 192 0
FLAG -896 208 0
FLAG -384 192 0
FLAG 832 -160 vcc
FLAG 832 -96 vee
FLAG 1392 -112 OUTPUT_shape-
IOPIN 1392 -112 Out
FLAG 1168 -32 0
FLAG -480 -112 vout_timer
FLAG -832 400 0
FLAG -448 624 0
FLAG -832 640 0
FLAG -320 624 0
FLAG -416 320 vout_timer2
FLAG 1248 -80 vee
FLAG 832 176 vee
FLAG 112 224 vee
FLAG 1248 -144 vcc
FLAG 832 112 vcc
FLAG 112 160 vcc
FLAG -992 80 trigger
IOPIN -992 80 In
FLAG -448 -32 vcc
FLAG -400 400 vcc
SYMBOL polcap 464 224 R0
WINDOW 3 24 56 Left 2
SYMATTR Value 0.5µ
SYMATTR InstName C1
SYMATTR Description Capacitor
SYMATTR Type cap
SYMATTR SpiceLine V=4 Irms=3.87298 Rser=0.015 Lser=0 mfg="KEMET" pn="A700X227M004ATE015" type="Al electrolytic"
SYMBOL res 368 -128 R90
WINDOW 0 0 56 VBottom 2
WINDOW 3 32 56 VTop 2
SYMATTR InstName Rset3
SYMATTR Value 0.5Meg
SYMBOL res 208 -128 R90
WINDOW 0 0 56 VBottom 2
WINDOW 3 32 56 VTop 2
SYMATTR InstName R5
SYMATTR Value 100
SYMBOL cap -528 96 R0
SYMATTR InstName C2
SYMATTR Value 0.1µ
SYMBOL res -912 64 R0
SYMATTR InstName Rset1
SYMATTR Value 450k
SYMBOL res -400 -48 R0
SYMATTR InstName Ra1
SYMATTR Value 1Meg
SYMBOL res -400 64 R0
SYMATTR InstName Rb1
SYMATTR Value 681k
SYMBOL diode -128 -96 R270
WINDOW 0 32 32 VTop 2
WINDOW 3 0 32 VBottom 2
SYMATTR InstName D1
SYMATTR Value 1N914
SYMBOL Opamps\\LT1366 832 -192 R0
SYMATTR InstName U1
SYMBOL Opamps\\LT1366 832 80 R0
SYMATTR InstName U2
SYMBOL Opamps\\LT1366 1248 -176 R0
SYMATTR InstName U3
SYMBOL res 1312 -224 R90
WINDOW 0 0 56 VBottom 2
WINDOW 3 32 56 VTop 2
SYMATTR InstName R6
SYMATTR Value 1k
SYMBOL res 1152 -144 R90
WINDOW 0 0 56 VBottom 2
WINDOW 3 32 56 VTop 2
SYMATTR InstName R7
SYMATTR Value 1k
SYMBOL SpecialFunctions\\LTC6993-2 -688 -32 R0
SYMATTR InstName U4
SYMBOL cap -464 528 R0
SYMATTR InstName C3
SYMATTR Value 0.1µ
SYMBOL res -848 496 R0
SYMATTR InstName Rset2
SYMATTR Value 191k
SYMBOL res -336 384 R0
SYMATTR InstName Ra2
SYMATTR Value 1Meg
SYMBOL res -336 496 R0
SYMATTR InstName Rb2
SYMATTR Value 681k
SYMBOL SpecialFunctions\\LTC6993-2 -624 400 R0
SYMATTR InstName U7
SYMBOL res 400 96 R90
WINDOW 0 0 56 VBottom 2
WINDOW 3 32 56 VTop 2
SYMATTR InstName R1
SYMATTR Value 100
SYMBOL res 496 96 R90
WINDOW 0 0 56 VBottom 2
WINDOW 3 32 56 VTop 2
SYMATTR InstName Rset4
SYMATTR Value 0.5Meg
SYMBOL diode 240 128 R0
SYMATTR InstName D2
SYMATTR Value 1N914
SYMBOL Opamps\\LT1366 112 128 R0
SYMATTR InstName U6
TEXT -1912 -304 Left 2 ;pin SET is the Pulse Width Setting input
TEXT -1920 -400 Left 2 ;This version of LTC6993-2 is triggered on the rising  edge and retriggerable
TEXT -1920 -368 Left 2 ;(it allows the pulse width to be extended by additional trig signals)
TEXT -1912 -256 Left 2 ;pin OUT has a resistance of approx 30 ohm
TEXT -1912 -200 Left 2 ;the Rset1 and Rset2 are accurately chosen from LTC6993 datasheet table1 to set the length of the pulse
