Version 4
SHEET 1 5516 3120
WIRE -2496 -1040 -2544 -1040
WIRE -2368 -1040 -2416 -1040
WIRE -4064 -976 -4096 -976
WIRE -3904 -976 -3984 -976
WIRE -3600 -960 -3648 -960
WIRE -3456 -960 -3520 -960
WIRE -3408 -960 -3456 -960
WIRE -3280 -960 -3344 -960
WIRE -2720 -960 -2816 -960
WIRE -2688 -960 -2720 -960
WIRE -2544 -960 -2544 -1040
WIRE -2544 -960 -2608 -960
WIRE -2512 -960 -2544 -960
WIRE -2816 -944 -2816 -960
WIRE -2816 -944 -3200 -944
WIRE -2368 -944 -2368 -1040
WIRE -2368 -944 -2448 -944
WIRE -2128 -944 -2368 -944
WIRE -1968 -944 -2048 -944
WIRE -1888 -944 -1968 -944
WIRE -4512 -928 -4512 -960
WIRE -2512 -928 -2560 -928
WIRE -2560 -896 -2560 -928
WIRE -5056 -880 -5104 -880
WIRE -4944 -880 -4976 -880
WIRE -4096 -864 -4096 -976
WIRE -4096 -864 -4304 -864
WIRE -4064 -864 -4096 -864
WIRE -2112 -864 -2112 -896
WIRE -3904 -848 -3904 -976
WIRE -3904 -848 -4000 -848
WIRE -3648 -848 -3648 -960
WIRE -3648 -848 -3904 -848
WIRE -3456 -848 -3456 -960
WIRE -3376 -848 -3456 -848
WIRE -2064 -848 -2064 -896
WIRE -4512 -832 -4512 -848
WIRE -4512 -832 -4720 -832
WIRE -4064 -832 -4112 -832
WIRE -3280 -832 -3280 -960
WIRE -3280 -832 -3312 -832
WIRE -3200 -832 -3200 -944
WIRE -3200 -832 -3280 -832
WIRE -3120 -832 -3200 -832
WIRE -4512 -816 -4512 -832
WIRE -4304 -816 -4304 -864
WIRE -4112 -816 -4112 -832
WIRE -3376 -816 -3408 -816
WIRE -2976 -816 -3056 -816
WIRE -2896 -816 -2976 -816
WIRE -2736 -816 -2816 -816
WIRE -1744 -816 -2736 -816
WIRE -3120 -800 -3200 -800
WIRE -5312 -784 -5376 -784
WIRE -5168 -784 -5232 -784
WIRE -5104 -784 -5104 -880
WIRE -5104 -784 -5168 -784
WIRE -5056 -784 -5104 -784
WIRE -4944 -768 -4944 -880
WIRE -4944 -768 -4992 -768
WIRE -4576 -768 -4944 -768
WIRE -4192 -768 -4240 -768
WIRE -3648 -768 -3648 -848
WIRE -3600 -768 -3648 -768
WIRE -3408 -768 -3408 -816
WIRE -3408 -768 -3520 -768
WIRE -5056 -752 -5088 -752
WIRE -2880 -736 -2880 -768
WIRE -4192 -720 -4192 -768
WIRE -3200 -720 -3200 -800
WIRE -3136 -720 -3200 -720
WIRE -2976 -720 -2976 -816
WIRE -2976 -720 -3056 -720
WIRE -2832 -720 -2832 -768
WIRE -5088 -704 -5088 -752
WIRE -5312 -672 -5488 -672
WIRE -5168 -672 -5168 -784
WIRE -5168 -672 -5232 -672
WIRE -4512 -672 -4512 -720
WIRE -4400 -672 -4512 -672
WIRE -4304 -672 -4304 -720
WIRE -4304 -672 -4400 -672
WIRE -3408 -672 -3408 -688
WIRE -3200 -640 -3200 -720
WIRE -3456 -608 -3456 -848
WIRE -2496 -608 -2560 -608
WIRE -2416 -608 -2496 -608
WIRE -2240 -608 -2336 -608
WIRE -7280 -592 -7520 -592
WIRE -7056 -592 -7280 -592
WIRE -6864 -592 -6864 -640
WIRE -6864 -592 -7056 -592
WIRE -6832 -592 -6864 -592
WIRE -6592 -592 -6832 -592
WIRE -6368 -592 -6592 -592
WIRE -6128 -592 -6368 -592
WIRE -4400 -576 -4400 -672
WIRE -4720 -560 -4720 -832
WIRE -4672 -560 -4720 -560
WIRE -4496 -560 -4608 -560
WIRE -2496 -528 -2560 -528
WIRE -2416 -528 -2496 -528
WIRE -2240 -528 -2240 -608
WIRE -2240 -528 -2336 -528
WIRE -7520 -512 -7520 -592
WIRE -7280 -512 -7280 -592
WIRE -7056 -512 -7056 -592
WIRE -6832 -512 -6832 -592
WIRE -6592 -512 -6592 -592
WIRE -6368 -512 -6368 -592
WIRE -6128 -512 -6128 -592
WIRE -3200 -512 -3200 -560
WIRE -4720 -480 -4720 -560
WIRE -4592 -480 -4720 -480
WIRE -4496 -464 -4496 -560
WIRE -4496 -464 -4528 -464
WIRE -4400 -464 -4400 -496
WIRE -4400 -464 -4496 -464
WIRE -2000 -464 -2064 -464
WIRE -1840 -464 -1920 -464
WIRE -4592 -448 -4640 -448
WIRE -3456 -432 -3456 -528
WIRE -4640 -416 -4640 -448
WIRE -7520 -384 -7520 -432
WIRE -7280 -384 -7280 -432
WIRE -7056 -384 -7056 -432
WIRE -6832 -384 -6832 -432
WIRE -6592 -384 -6592 -432
WIRE -6368 -384 -6368 -432
WIRE -6128 -384 -6128 -432
WIRE -3328 -384 -3392 -384
WIRE -2976 -384 -2976 -720
WIRE -2976 -384 -3248 -384
WIRE -2240 -384 -2240 -528
WIRE -2064 -384 -2064 -464
WIRE -2064 -384 -2240 -384
WIRE -2000 -384 -2064 -384
WIRE -1840 -368 -1840 -464
WIRE -1840 -368 -1936 -368
WIRE -1792 -368 -1840 -368
WIRE -1632 -368 -1712 -368
WIRE -1568 -368 -1632 -368
WIRE -2000 -352 -2064 -352
WIRE -2064 -320 -2064 -352
WIRE -2528 -304 -2576 -304
WIRE -2432 -304 -2528 -304
WIRE -2256 -304 -2352 -304
WIRE -3456 -288 -3456 -336
WIRE -1776 -288 -1776 -320
WIRE -1728 -272 -1728 -320
WIRE -7520 -256 -7520 -304
WIRE -7456 -256 -7520 -256
WIRE -7280 -256 -7280 -304
WIRE -7168 -256 -7280 -256
WIRE -7056 -256 -7056 -304
WIRE -6944 -256 -7056 -256
WIRE -6832 -256 -6832 -304
WIRE -6768 -256 -6832 -256
WIRE -6592 -256 -6592 -304
WIRE -6480 -256 -6592 -256
WIRE -6368 -256 -6368 -304
WIRE -6256 -256 -6368 -256
WIRE -6128 -256 -6128 -304
WIRE -6016 -256 -6128 -256
WIRE -2528 -224 -2576 -224
WIRE -2432 -224 -2528 -224
WIRE -2256 -224 -2256 -304
WIRE -2256 -224 -2352 -224
WIRE -7280 -208 -7280 -256
WIRE -7280 -208 -7344 -208
WIRE -7216 -208 -7280 -208
WIRE -7056 -208 -7056 -256
WIRE -7056 -208 -7120 -208
WIRE -6992 -208 -7056 -208
WIRE -6592 -208 -6592 -256
WIRE -6592 -208 -6656 -208
WIRE -6528 -208 -6592 -208
WIRE -6368 -208 -6368 -256
WIRE -6368 -208 -6432 -208
WIRE -6304 -208 -6368 -208
WIRE -6128 -208 -6128 -256
WIRE -6128 -208 -6192 -208
WIRE -6064 -208 -6128 -208
WIRE -7520 -176 -7520 -256
WIRE -7344 -176 -7344 -208
WIRE -7216 -176 -7216 -208
WIRE -7120 -176 -7120 -208
WIRE -6992 -176 -6992 -208
WIRE -6832 -176 -6832 -256
WIRE -6656 -176 -6656 -208
WIRE -6528 -176 -6528 -208
WIRE -6432 -176 -6432 -208
WIRE -6304 -176 -6304 -208
WIRE -6192 -176 -6192 -208
WIRE -6064 -176 -6064 -208
WIRE -2016 -144 -2080 -144
WIRE -1856 -144 -1936 -144
WIRE -2640 -128 -2688 -128
WIRE -2512 -128 -2560 -128
WIRE -2256 -64 -2256 -224
WIRE -2080 -64 -2080 -144
WIRE -2080 -64 -2256 -64
WIRE -2016 -64 -2080 -64
WIRE -7344 -48 -7344 -96
WIRE -7280 -48 -7344 -48
WIRE -7216 -48 -7216 -96
WIRE -7216 -48 -7280 -48
WIRE -7120 -48 -7120 -96
WIRE -7056 -48 -7120 -48
WIRE -6992 -48 -6992 -96
WIRE -6992 -48 -7056 -48
WIRE -6656 -48 -6656 -96
WIRE -6592 -48 -6656 -48
WIRE -6528 -48 -6528 -96
WIRE -6528 -48 -6592 -48
WIRE -6432 -48 -6432 -96
WIRE -6368 -48 -6432 -48
WIRE -6304 -48 -6304 -96
WIRE -6304 -48 -6368 -48
WIRE -6192 -48 -6192 -96
WIRE -6128 -48 -6192 -48
WIRE -6064 -48 -6064 -96
WIRE -6064 -48 -6128 -48
WIRE -4112 -48 -4144 -48
WIRE -3952 -48 -4032 -48
WIRE -2864 -48 -3248 -48
WIRE -2832 -48 -2864 -48
WIRE -2688 -48 -2688 -128
WIRE -2688 -48 -2752 -48
WIRE -2656 -48 -2688 -48
WIRE -2512 -48 -2512 -128
WIRE -2480 -48 -2512 -48
WIRE -1856 -48 -1856 -144
WIRE -1856 -48 -1952 -48
WIRE -1808 -48 -1856 -48
WIRE -1648 -48 -1728 -48
WIRE -1584 -48 -1648 -48
WIRE -3648 -32 -3696 -32
WIRE -3504 -32 -3568 -32
WIRE -3456 -32 -3504 -32
WIRE -3328 -32 -3392 -32
WIRE -2512 -32 -2512 -48
WIRE -2512 -32 -2592 -32
WIRE -2016 -32 -2080 -32
WIRE -7520 -16 -7520 -96
WIRE -7280 -16 -7280 -48
WIRE -7056 -16 -7056 -48
WIRE -6832 -16 -6832 -96
WIRE -6592 -16 -6592 -48
WIRE -6368 -16 -6368 -48
WIRE -6128 -16 -6128 -48
WIRE -2656 -16 -2704 -16
WIRE -4560 0 -4560 -32
WIRE -2080 0 -2080 -32
WIRE -7168 16 -7168 -256
WIRE -7168 16 -7216 16
WIRE -6944 16 -6944 -256
WIRE -6944 16 -6992 16
WIRE -6768 16 -6768 -256
WIRE -6752 16 -6768 16
WIRE -6480 16 -6480 -256
WIRE -6480 16 -6528 16
WIRE -6256 16 -6256 -256
WIRE -6256 16 -6304 16
WIRE -6016 16 -6016 -256
WIRE -6016 16 -6064 16
WIRE -2704 16 -2704 -16
WIRE -1792 32 -1792 0
WIRE -5808 48 -5808 0
WIRE -5104 48 -5152 48
WIRE -4992 48 -5024 48
WIRE -1744 48 -1744 0
WIRE -4144 64 -4144 -48
WIRE -4144 64 -4352 64
WIRE -4112 64 -4144 64
WIRE -3952 80 -3952 -48
WIRE -3952 80 -4048 80
WIRE -3696 80 -3696 -32
WIRE -3696 80 -3952 80
WIRE -3504 80 -3504 -32
WIRE -3424 80 -3504 80
WIRE -4560 96 -4560 80
WIRE -4560 96 -4768 96
WIRE -4112 96 -4160 96
WIRE -3328 96 -3328 -32
WIRE -3328 96 -3360 96
WIRE -3248 96 -3248 -48
WIRE -3248 96 -3328 96
WIRE -3168 96 -3248 96
WIRE -4560 112 -4560 96
WIRE -4352 112 -4352 64
WIRE -4160 112 -4160 96
WIRE -3424 112 -3456 112
WIRE -3024 112 -3104 112
WIRE -2672 112 -3024 112
WIRE -5360 128 -5424 128
WIRE -5264 128 -5280 128
WIRE -3168 128 -3248 128
WIRE -5264 144 -5264 128
WIRE -5216 144 -5264 144
WIRE -5152 144 -5152 48
WIRE -5152 144 -5216 144
WIRE -5104 144 -5152 144
WIRE -5872 160 -5904 160
WIRE -5808 160 -5808 128
WIRE -5808 160 -5872 160
WIRE -4992 160 -4992 48
WIRE -4992 160 -5040 160
WIRE -4624 160 -4992 160
WIRE -4240 160 -4288 160
WIRE -3696 160 -3696 80
WIRE -3648 160 -3696 160
WIRE -3456 160 -3456 112
WIRE -3456 160 -3568 160
WIRE -5104 176 -5136 176
WIRE -4240 208 -4240 160
WIRE -3248 208 -3248 128
WIRE -3184 208 -3248 208
WIRE -3024 208 -3024 112
WIRE -3024 208 -3104 208
WIRE -7456 224 -7456 -256
WIRE -7216 224 -7216 16
WIRE -6992 224 -6992 16
WIRE -6752 224 -6752 16
WIRE -6528 224 -6528 16
WIRE -6304 224 -6304 16
WIRE -6064 224 -6064 16
WIRE -5808 224 -5808 160
WIRE -5136 224 -5136 176
WIRE -5360 256 -5536 256
WIRE -5216 256 -5216 144
WIRE -5216 256 -5280 256
WIRE -4560 256 -4560 208
WIRE -4448 256 -4560 256
WIRE -4352 256 -4352 208
WIRE -4352 256 -4448 256
WIRE -3456 256 -3456 240
WIRE -2480 272 -2480 -48
WIRE -2272 272 -2480 272
WIRE -2112 272 -2192 272
WIRE -1840 272 -2112 272
WIRE -7456 288 -7456 224
WIRE -7216 288 -7216 224
WIRE -6992 288 -6992 224
WIRE -6752 288 -6752 224
WIRE -6528 288 -6528 224
WIRE -6304 288 -6304 224
WIRE -6064 288 -6064 224
WIRE -3248 288 -3248 208
WIRE -3504 320 -3504 80
WIRE -4448 352 -4448 256
WIRE -2256 352 -2256 320
WIRE -4768 368 -4768 96
WIRE -4720 368 -4768 368
WIRE -4544 368 -4656 368
WIRE -2208 368 -2208 320
WIRE -7456 400 -7456 368
WIRE -7440 400 -7456 400
WIRE -7216 400 -7216 368
WIRE -7216 400 -7440 400
WIRE -6992 400 -6992 368
WIRE -6992 400 -7216 400
WIRE -6752 400 -6752 368
WIRE -6752 400 -6992 400
WIRE -6528 400 -6528 368
WIRE -6528 400 -6752 400
WIRE -6304 400 -6304 368
WIRE -6304 400 -6528 400
WIRE -6064 400 -6064 368
WIRE -6064 400 -6304 400
WIRE -3248 416 -3248 368
WIRE -4768 448 -4768 368
WIRE -4640 448 -4768 448
WIRE -4544 464 -4544 368
WIRE -4544 464 -4576 464
WIRE -4448 464 -4448 432
WIRE -4448 464 -4544 464
WIRE -4640 480 -4688 480
WIRE -2672 480 -2672 112
WIRE -2272 480 -2672 480
WIRE -2112 480 -2192 480
WIRE -1840 480 -2112 480
WIRE -6096 496 -6160 496
WIRE -5952 496 -6016 496
WIRE -3504 496 -3504 400
WIRE -5632 512 -5680 512
WIRE -5504 512 -5552 512
WIRE -4688 512 -4688 480
WIRE -3376 544 -3440 544
WIRE -3024 544 -3024 208
WIRE -3024 544 -3296 544
WIRE -2256 560 -2256 528
WIRE -7280 576 -7344 576
WIRE -7136 576 -7200 576
WIRE -6320 576 -6624 576
WIRE -6208 576 -6240 576
WIRE -6160 576 -6160 496
WIRE -6160 576 -6208 576
WIRE -6112 576 -6160 576
WIRE -2208 576 -2208 528
WIRE -6880 592 -6928 592
WIRE -6752 592 -6800 592
WIRE -5952 592 -5952 496
WIRE -5952 592 -6048 592
WIRE -5824 592 -5952 592
WIRE -5680 592 -5680 512
WIRE -5680 592 -5744 592
WIRE -5648 592 -5680 592
WIRE -6112 608 -6160 608
WIRE -5504 608 -5504 512
WIRE -5504 608 -5584 608
WIRE -5456 608 -5504 608
WIRE -5392 608 -5456 608
WIRE -5648 624 -5696 624
WIRE -3504 640 -3504 592
WIRE -7440 656 -7440 400
WIRE -7344 656 -7344 576
WIRE -7344 656 -7440 656
WIRE -7296 656 -7344 656
WIRE -6160 656 -6160 608
WIRE -5696 656 -5696 624
WIRE -7136 672 -7136 576
WIRE -7136 672 -7232 672
WIRE -7072 672 -7136 672
WIRE -6928 672 -6928 592
WIRE -6928 672 -6992 672
WIRE -6896 672 -6928 672
WIRE -6320 672 -6416 672
WIRE -6208 672 -6208 576
WIRE -6208 672 -6240 672
WIRE -7296 688 -7344 688
WIRE -6752 688 -6752 592
WIRE -6752 688 -6832 688
WIRE -6624 688 -6624 576
WIRE -6624 688 -6752 688
WIRE -6576 688 -6624 688
WIRE -5456 688 -5456 608
WIRE -6896 704 -6944 704
WIRE -1392 704 -1536 704
WIRE -7344 736 -7344 688
WIRE -6944 736 -6944 704
WIRE -1456 784 -1536 784
WIRE -2448 800 -2448 752
WIRE -2512 816 -2512 800
WIRE -1536 816 -1536 784
WIRE -1392 816 -1392 704
WIRE -1360 816 -1360 800
WIRE -1360 816 -1392 816
WIRE -5456 832 -5456 768
WIRE -5424 832 -5456 832
WIRE -1952 864 -1984 864
WIRE -1808 864 -1872 864
WIRE -1456 864 -1456 784
WIRE -1456 864 -1472 864
WIRE -1424 864 -1456 864
WIRE -2176 880 -2336 880
WIRE -1120 880 -1168 880
WIRE -2624 912 -2688 912
WIRE -2512 912 -2512 816
WIRE -2512 912 -2560 912
WIRE -2448 912 -2448 864
WIRE -2448 912 -2512 912
WIRE -2256 928 -2256 800
WIRE -1536 928 -1536 912
WIRE -1536 928 -1632 928
WIRE -6144 944 -7008 944
WIRE -2624 944 -2688 944
WIRE -2448 944 -2560 944
WIRE -2336 944 -2336 880
WIRE -2288 944 -2336 944
WIRE -1360 944 -1360 912
WIRE -1168 944 -1168 880
WIRE -1168 944 -1360 944
WIRE -1120 944 -1168 944
WIRE -2176 960 -2176 880
WIRE -2176 960 -2224 960
WIRE -2080 960 -2176 960
WIRE -1984 960 -1984 864
WIRE -1984 960 -2000 960
WIRE -1952 960 -1984 960
WIRE -1536 960 -1536 928
WIRE -1360 960 -1360 944
WIRE -2624 976 -2688 976
WIRE -2288 976 -2560 976
WIRE -1808 976 -1808 864
WIRE -1808 976 -1888 976
WIRE -1632 976 -1632 928
WIRE -1632 976 -1808 976
WIRE -1952 992 -1984 992
WIRE -1120 992 -1120 944
WIRE -2624 1008 -2672 1008
WIRE -2512 1008 -2560 1008
WIRE -2448 1008 -2512 1008
WIRE -1456 1008 -1472 1008
WIRE -1424 1008 -1456 1008
WIRE -2256 1024 -2256 992
WIRE -1984 1024 -1984 992
WIRE -6352 1040 -6416 1040
WIRE -6192 1040 -6272 1040
WIRE -2448 1040 -2448 1008
WIRE -1360 1072 -1360 1056
WIRE -1360 1072 -1424 1072
WIRE -7008 1088 -7008 944
WIRE -1536 1088 -1536 1056
WIRE -1456 1088 -1456 1008
WIRE -1456 1088 -1536 1088
WIRE -2512 1104 -2512 1008
WIRE -5728 1120 -5808 1120
WIRE -1120 1120 -1120 1072
WIRE -2448 1152 -2448 1104
WIRE -5984 1168 -6000 1168
WIRE -5856 1168 -5904 1168
WIRE -1424 1168 -1424 1072
WIRE -1424 1168 -1536 1168
WIRE -4832 1200 -5008 1200
WIRE -4512 1200 -4608 1200
WIRE -4160 1200 -4512 1200
WIRE -3920 1200 -4096 1200
WIRE -3760 1200 -3840 1200
WIRE -3552 1200 -3680 1200
WIRE -2672 1200 -2672 1008
WIRE -7008 1248 -7008 1168
WIRE -6960 1248 -7008 1248
WIRE -6848 1248 -6896 1248
WIRE -6768 1248 -6848 1248
WIRE -6640 1248 -6704 1248
WIRE -6576 1248 -6640 1248
WIRE -6432 1248 -6512 1248
WIRE -6416 1248 -6416 1040
WIRE -6416 1248 -6432 1248
WIRE -6336 1248 -6416 1248
WIRE -6192 1264 -6192 1040
WIRE -6192 1264 -6272 1264
WIRE -6144 1264 -6144 944
WIRE -6144 1264 -6192 1264
WIRE -6048 1264 -6064 1264
WIRE -6000 1264 -6000 1168
WIRE -6000 1264 -6048 1264
WIRE -5984 1264 -6000 1264
WIRE -5664 1264 -5664 1200
WIRE -6336 1280 -6352 1280
WIRE -5856 1280 -5856 1168
WIRE -5856 1280 -5920 1280
WIRE -5808 1280 -5808 1120
WIRE -5808 1280 -5856 1280
WIRE -5696 1280 -5808 1280
WIRE -4832 1280 -4928 1280
WIRE -4544 1280 -4608 1280
WIRE -4480 1280 -4544 1280
WIRE -4416 1280 -4480 1280
WIRE -6848 1296 -6848 1248
WIRE -6640 1296 -6640 1248
WIRE -6432 1296 -6432 1248
WIRE -6048 1296 -6048 1264
WIRE -5536 1296 -5632 1296
WIRE -5424 1296 -5536 1296
WIRE -5696 1312 -5808 1312
WIRE -5536 1312 -5536 1296
WIRE -3552 1328 -3552 1200
WIRE -3504 1328 -3552 1328
WIRE -4832 1360 -4928 1360
WIRE -4416 1360 -4608 1360
WIRE -5664 1392 -5664 1328
WIRE -5008 1392 -5008 1200
WIRE -5008 1392 -5024 1392
WIRE -4928 1392 -4928 1360
WIRE -4416 1392 -4416 1360
WIRE -4544 1408 -4544 1280
WIRE -2928 1408 -2992 1408
WIRE -2784 1408 -2848 1408
WIRE -6160 1424 -6176 1424
WIRE -6048 1424 -6048 1376
WIRE -6048 1424 -6080 1424
WIRE -6032 1424 -6048 1424
WIRE -3776 1424 -3984 1424
WIRE -3728 1424 -3776 1424
WIRE -3632 1424 -3648 1424
WIRE -3552 1424 -3552 1328
WIRE -3120 1424 -3472 1424
WIRE -6848 1440 -6848 1376
WIRE -6640 1440 -6640 1376
WIRE -6640 1440 -6848 1440
WIRE -6432 1440 -6432 1376
WIRE -6432 1440 -6640 1440
WIRE -6352 1440 -6352 1280
WIRE -6352 1440 -6432 1440
WIRE -5808 1440 -5808 1312
WIRE -5536 1440 -5536 1392
WIRE -5536 1440 -5808 1440
WIRE -3776 1440 -3776 1424
WIRE -6352 1472 -6352 1440
WIRE -3504 1472 -3504 1328
WIRE -3472 1472 -3472 1424
WIRE -3472 1472 -3504 1472
WIRE -3392 1472 -3472 1472
WIRE -3984 1488 -3984 1424
WIRE -3952 1488 -3984 1488
WIRE -3120 1488 -3120 1424
WIRE -3120 1488 -3328 1488
WIRE -3104 1488 -3120 1488
WIRE -3088 1488 -3104 1488
WIRE -2992 1488 -2992 1408
WIRE -2992 1488 -3008 1488
WIRE -2928 1488 -2992 1488
WIRE -4544 1504 -4544 1472
WIRE -4416 1504 -4416 1472
WIRE -3776 1504 -3888 1504
WIRE -2784 1504 -2784 1408
WIRE -2784 1504 -2864 1504
WIRE -2752 1504 -2784 1504
WIRE -4928 1520 -4928 1472
WIRE -3952 1520 -4032 1520
WIRE -2928 1520 -2976 1520
WIRE -5536 1536 -5536 1520
WIRE -3552 1536 -3552 1424
WIRE -2976 1584 -2976 1520
WIRE -6176 1616 -7040 1616
WIRE -5008 1632 -5008 1392
WIRE -4768 1632 -5008 1632
WIRE -4448 1632 -4544 1632
WIRE -4032 1632 -4032 1520
WIRE -4032 1632 -4448 1632
WIRE -3552 1648 -3552 1600
WIRE -6384 1712 -6448 1712
WIRE -6224 1712 -6304 1712
WIRE -4768 1712 -4864 1712
WIRE -4480 1712 -4544 1712
WIRE -4432 1712 -4480 1712
WIRE -4352 1712 -4432 1712
WIRE -3104 1728 -3104 1488
WIRE -2752 1728 -3104 1728
WIRE -7040 1760 -7040 1616
WIRE -5632 1792 -5728 1792
WIRE -4768 1792 -4864 1792
WIRE -4352 1792 -4544 1792
WIRE -4864 1824 -4864 1792
WIRE -4352 1824 -4352 1792
WIRE -5904 1840 -5920 1840
WIRE -5776 1840 -5824 1840
WIRE -4480 1840 -4480 1712
WIRE -7040 1920 -7040 1840
WIRE -6992 1920 -7040 1920
WIRE -6880 1920 -6928 1920
WIRE -6800 1920 -6880 1920
WIRE -6672 1920 -6736 1920
WIRE -6608 1920 -6672 1920
WIRE -6464 1920 -6544 1920
WIRE -6448 1920 -6448 1712
WIRE -6448 1920 -6464 1920
WIRE -6368 1920 -6448 1920
WIRE -6224 1936 -6224 1712
WIRE -6224 1936 -6304 1936
WIRE -6176 1936 -6176 1616
WIRE -6176 1936 -6224 1936
WIRE -6064 1936 -6176 1936
WIRE -5968 1936 -5984 1936
WIRE -5920 1936 -5920 1840
WIRE -5920 1936 -5968 1936
WIRE -5904 1936 -5920 1936
WIRE -4480 1936 -4480 1904
WIRE -4352 1936 -4352 1904
WIRE -6368 1952 -6384 1952
WIRE -5776 1952 -5776 1840
WIRE -5776 1952 -5840 1952
WIRE -5728 1952 -5728 1792
WIRE -5728 1952 -5776 1952
WIRE -5616 1952 -5728 1952
WIRE -4864 1952 -4864 1904
WIRE -6880 1968 -6880 1920
WIRE -6672 1968 -6672 1920
WIRE -6464 1968 -6464 1920
WIRE -5968 1968 -5968 1936
WIRE -5456 1968 -5552 1968
WIRE -5344 1968 -5456 1968
WIRE -5616 1984 -5728 1984
WIRE -5456 1984 -5456 1968
WIRE -6080 2096 -6096 2096
WIRE -5968 2096 -5968 2048
WIRE -5968 2096 -6000 2096
WIRE -5952 2096 -5968 2096
WIRE -6880 2112 -6880 2048
WIRE -6672 2112 -6672 2048
WIRE -6672 2112 -6880 2112
WIRE -6464 2112 -6464 2048
WIRE -6464 2112 -6672 2112
WIRE -6384 2112 -6384 1952
WIRE -6384 2112 -6464 2112
WIRE -5728 2112 -5728 1984
WIRE -5456 2112 -5456 2064
WIRE -5456 2112 -5728 2112
WIRE -6384 2144 -6384 2112
WIRE -5456 2208 -5456 2192
WIRE -6704 2896 -6704 2864
WIRE -6592 2896 -6592 2864
FLAG -6704 2976 0
FLAG -6704 2864 vcc
FLAG -6592 2976 0
FLAG -6592 2864 vee
FLAG -6336 2976 0
FLAG -6208 2896 Vc+
FLAG -6336 2896 Vc-
FLAG -6208 2976 0
FLAG -2512 1104 Vc+
FLAG -2512 816 Vc-
FLAG -2672 1200 0
FLAG -2448 1152 0
FLAG -2448 752 0
FLAG -2448 944 0
FLAG -2256 1024 Vc-
IOPIN -2256 1024 In
FLAG -2256 800 Vc+
IOPIN -2256 800 In
FLAG -1360 800 Vc+
FLAG -1360 1072 Vc-
FLAG -1920 944 Vc+
FLAG -1920 1008 Vc-
FLAG -1984 1024 0
FLAG -2688 912 Shape+
IOPIN -2688 912 In
FLAG -2688 944 Shape-
IOPIN -2688 944 In
FLAG -2688 976 Carrier_signal
IOPIN -2688 976 In
FLAG -1120 880 OUTPUT
IOPIN -1120 880 Out
FLAG -1120 1120 0
FLAG -5536 1536 0
FLAG -6352 1472 0
FLAG -6304 1232 vcc
FLAG -6304 1296 vee
FLAG -5424 1296 square
IOPIN -5424 1296 Out
FLAG -5728 1120 sine
IOPIN -5728 1120 Out
FLAG -5984 1296 0
FLAG -5952 1248 vcc
FLAG -5952 1312 vee
FLAG -5584 1200 0
FLAG -5584 1392 0
FLAG -5744 1200 vcc
FLAG -5744 1392 vee
FLAG -5952 1424 0
FLAG -6176 1424 vcc
FLAG -6864 -640 0
FLAG -6064 224 C4
FLAG -6304 224 D4
FLAG -6528 224 E4
FLAG -6752 224 F4
FLAG -6992 224 G4
FLAG -7216 224 A4
FLAG -7456 224 B4
FLAG -7344 736 0
FLAG -6944 736 0
FLAG -6576 688 KEY1
IOPIN -6576 688 Out
FLAG -6128 -16 0
FLAG -6368 -16 0
FLAG -6592 -16 0
FLAG -7056 -16 0
FLAG -7280 -16 0
FLAG -7520 -16 0
FLAG -6832 -16 0
FLAG -5424 832 trigger_signal
IOPIN -5424 832 Out
FLAG -5808 304 0
FLAG -5808 0 vcc
FLAG -6160 656 0
FLAG -5872 160 vadd
FLAG -6416 672 vadd
FLAG -5696 656 0
FLAG -5392 608 KEY2
IOPIN -5392 608 Out
FLAG -6864 656 vcc
FLAG -7264 640 vcc
FLAG -6080 560 vcc
FLAG -7264 704 vee
FLAG -6864 720 vee
FLAG -6080 624 vee
FLAG -5616 640 vee
FLAG -5616 576 vcc
FLAG -3552 1648 0
FLAG -2752 1728 OUTPUT_shape+
IOPIN -2752 1728 Out
FLAG -4928 1280 0
FLAG -4544 1504 0
FLAG -4928 1520 0
FLAG -4416 1504 0
FLAG -2752 1504 OUTPUT_shape-
IOPIN -2752 1504 Out
FLAG -2976 1584 0
FLAG -4512 1200 vout_timer
FLAG -4864 1712 0
FLAG -4480 1936 0
FLAG -4864 1952 0
FLAG -4352 1936 0
FLAG -4448 1632 vout_timer2
FLAG -2896 1536 vee
FLAG -3360 1520 vee
FLAG -3920 1536 vee
FLAG -2896 1472 vcc
FLAG -3360 1456 vcc
FLAG -3920 1472 vcc
FLAG -5024 1392 trigger
IOPIN -5024 1392 In
FLAG -4480 1280 vcc
FLAG -4432 1712 vcc
FLAG -4192 -720 0
FLAG -4512 -960 vcc
FLAG -4640 -416 0
FLAG -4112 -816 0
FLAG -4032 -880 vcc
FLAG -4032 -816 vee
FLAG -4560 -496 vcc
FLAG -4560 -432 vee
FLAG -5024 -800 vcc
FLAG -5088 -704 0
FLAG -5376 -784 KEY1
IOPIN -5376 -784 In
FLAG -3344 -864 vcc
FLAG -3088 -848 vcc
FLAG -1888 -944 TRIANGLE
IOPIN -1888 -944 Out
FLAG -3408 -672 0
FLAG -3456 -288 0
FLAG -3200 -512 0
FLAG -3088 -784 vee
FLAG -3344 -800 vee
FLAG -5024 -736 vee
FLAG -2064 -320 0
FLAG -1968 -400 vcc
FLAG -1968 -336 vee
FLAG -1744 -816 SQUARE
IOPIN -1744 -816 Out
FLAG -2560 -896 0
FLAG -2480 -976 vcc
FLAG -2480 -912 vee
FLAG -2496 -528 T1
FLAG -2064 -848 KEY1
FLAG -2112 -864 0
FLAG -1968 -864 0
FLAG -2832 -720 KEY1
FLAG -2880 -736 0
FLAG -2736 -736 0
FLAG -2720 -960 T1
FLAG -2496 -608 T2
FLAG -1568 -368 SUM-TRIANGLE
IOPIN -1568 -368 Out
FLAG -1728 -272 KEY1
FLAG -1776 -288 0
FLAG -1632 -288 0
FLAG -5488 -672 LFO
IOPIN -5488 -672 In
FLAG -4240 208 0
FLAG -4560 -32 vcc
FLAG -4688 512 0
FLAG -4160 112 0
FLAG -4080 48 vcc
FLAG -4080 112 vee
FLAG -4608 432 vcc
FLAG -4608 496 vee
FLAG -5072 128 vcc
FLAG -5136 224 0
FLAG -5424 128 KEY2
IOPIN -5424 128 In
FLAG -3392 64 vcc
FLAG -3136 80 vcc
FLAG -1840 272 TRIANGLE2
IOPIN -1840 272 Out
FLAG -3456 256 0
FLAG -3504 640 0
FLAG -3248 416 0
FLAG -3136 144 vee
FLAG -3392 128 vee
FLAG -5072 192 vee
FLAG -2080 0 0
FLAG -1984 -80 vcc
FLAG -1984 -16 vee
FLAG -1584 -48 SUM-SQUARE
IOPIN -1584 -48 Out
FLAG -1840 480 SQUARE2
IOPIN -1840 480 Out
FLAG -2208 368 KEY1
FLAG -2256 352 0
FLAG -2112 352 0
FLAG -2208 576 KEY1
FLAG -2256 560 0
FLAG -2112 560 0
FLAG -2704 16 0
FLAG -2624 -64 vcc
FLAG -2624 0 vee
FLAG -2864 -48 T2
FLAG -1744 48 KEY1
FLAG -1792 32 0
FLAG -1648 32 0
FLAG -2528 -224 SQUARE2
FLAG -2528 -304 SQUARE
FLAG -5536 256 LFO2
IOPIN -5536 256 In
FLAG -5456 2208 0
FLAG -6384 2144 0
FLAG -6336 1904 vcc
FLAG -6336 1968 vee
FLAG -5344 1968 square
IOPIN -5344 1968 Out
FLAG -5904 1968 0
FLAG -5872 1920 vcc
FLAG -5872 1984 vee
FLAG -5872 2096 0
FLAG -6096 2096 vcc
FLAG -5632 1792 sine
IOPIN -5632 1792 Out
FLAG -5584 1936 vcc
FLAG -5584 2000 vee
SYMBOL voltage -6704 2880 R0
SYMATTR InstName V3
SYMATTR Value 5
SYMBOL voltage -6592 2880 R0
SYMATTR InstName V4
SYMATTR Value -5
SYMBOL voltage -6336 2880 R0
WINDOW 123 0 0 Left 0
WINDOW 39 0 0 Left 0
SYMATTR InstName V5
SYMATTR Value -15
SYMBOL voltage -6208 2880 R0
SYMATTR InstName V6
SYMATTR Value 15
SYMBOL AutoGenerated\\AD633 -2592 960 R0
SYMATTR InstName U38
SYMBOL cap -2464 1040 R0
SYMATTR InstName C9
SYMATTR Value 0.1µ
SYMBOL cap -2464 800 R0
SYMATTR InstName C10
SYMATTR Value 0.1µ
SYMBOL Opamps\\LT1366 -2256 896 R0
WINDOW 3 19 101 Left 2
SYMATTR InstName U39
SYMBOL npn -1424 816 R0
SYMATTR InstName Q7
SYMATTR Value 2SCR542P
SYMBOL pnp -1424 1056 M180
SYMATTR InstName Q8
SYMATTR Value 2SAR542P
SYMBOL npn -1472 816 M0
SYMATTR InstName Q9
SYMATTR Value 2N3904
SYMBOL pnp -1472 1056 R180
SYMATTR InstName Q10
SYMATTR Value 2N3906
SYMBOL res -1552 688 R0
SYMATTR InstName R87
SYMATTR Value 500
SYMBOL res -1552 1072 R0
SYMATTR InstName R88
SYMATTR Value 500
SYMBOL res -1856 848 R90
WINDOW 0 0 56 VBottom 2
WINDOW 3 32 56 VTop 2
SYMATTR InstName R89
SYMATTR Value 2k
SYMBOL res -1984 944 R90
WINDOW 0 0 56 VBottom 2
WINDOW 3 32 56 VTop 2
SYMATTR InstName R90
SYMATTR Value 1k
SYMBOL Opamps\\AD8030 -1920 912 R0
SYMATTR InstName U40
SYMBOL res -1136 976 R0
SYMATTR InstName R91
SYMATTR Value 8
SYMBOL res -5552 1296 R0
SYMATTR InstName R1
SYMATTR Value 2k
SYMBOL res -5552 1424 R0
SYMATTR InstName R2
SYMATTR Value 1k
SYMBOL cap -6512 1232 R90
WINDOW 0 0 32 VBottom 2
WINDOW 3 32 32 VTop 2
SYMATTR InstName C1
SYMATTR Value {w}
SYMBOL cap -6704 1232 R90
WINDOW 0 0 32 VBottom 2
WINDOW 3 32 32 VTop 2
SYMATTR InstName C2
SYMATTR Value {w}
SYMBOL cap -6896 1232 R90
WINDOW 0 0 32 VBottom 2
WINDOW 3 32 32 VTop 2
SYMATTR InstName C3
SYMATTR Value {w}
SYMBOL res -6416 1392 R180
WINDOW 0 36 76 Left 2
WINDOW 3 36 40 Left 2
SYMATTR InstName R3
SYMATTR Value {z}
SYMBOL res -6624 1392 R180
WINDOW 0 36 76 Left 2
WINDOW 3 36 40 Left 2
SYMATTR InstName R4
SYMATTR Value {z}
SYMBOL res -6832 1392 R180
WINDOW 0 36 76 Left 2
WINDOW 3 36 40 Left 2
SYMATTR InstName R5
SYMATTR Value {z}
SYMBOL Opamps/LT1366 -6304 1200 R0
SYMATTR InstName U1
SYMBOL Opamps/LT1366 -5664 1232 R0
SYMATTR InstName U2
SYMBOL res -6256 1024 R90
WINDOW 0 0 56 VBottom 2
WINDOW 3 32 56 VTop 2
SYMATTR InstName R6
SYMATTR Value 725k
SYMBOL Opamps/LT1366 -5952 1216 R0
SYMATTR InstName U3
SYMBOL res -6048 1248 R90
WINDOW 0 0 56 VBottom 2
WINDOW 3 32 56 VTop 2
SYMATTR InstName R7
SYMATTR Value 1k
SYMBOL res -6064 1280 R0
SYMATTR InstName R8
SYMATTR Value 1k
SYMBOL res -5888 1152 R90
WINDOW 0 0 56 VBottom 2
WINDOW 3 32 56 VTop 2
SYMATTR InstName R9
SYMATTR Value 50k
SYMBOL res -5648 1376 R90
WINDOW 0 0 56 VBottom 2
WINDOW 3 32 56 VTop 2
SYMATTR InstName R10
SYMATTR Value 4.5k
SYMBOL res -5568 1376 R90
WINDOW 0 0 56 VBottom 2
WINDOW 3 32 56 VTop 2
SYMATTR InstName R11
SYMATTR Value 500
SYMBOL res -5568 1184 R90
WINDOW 0 0 56 VBottom 2
WINDOW 3 32 56 VTop 2
SYMATTR InstName R12
SYMATTR Value 500
SYMBOL res -5648 1184 R90
WINDOW 0 0 56 VBottom 2
WINDOW 3 32 56 VTop 2
SYMATTR InstName R13
SYMATTR Value 4.5k
SYMBOL res -7024 1072 R0
SYMATTR InstName R14
SYMATTR Value {z}
SYMBOL res -6176 1440 R270
WINDOW 0 32 56 VTop 2
WINDOW 3 0 56 VBottom 2
SYMATTR InstName R15
SYMATTR Value 45k
SYMBOL res -6048 1440 R270
WINDOW 0 32 56 VTop 2
WINDOW 3 0 56 VBottom 2
SYMATTR InstName R16
SYMATTR Value 70
SYMBOL res -7296 -400 R0
SYMATTR InstName R17
SYMATTR Value 1k
SYMBOL res -7536 -400 R0
SYMATTR InstName R18
SYMATTR Value 1k
SYMBOL res -7536 -192 R0
SYMATTR InstName R19
SYMATTR Value 1.5k
SYMBOL res -6848 -400 R0
SYMATTR InstName R20
SYMATTR Value 1k
SYMBOL res -6848 -192 R0
SYMATTR InstName R21
SYMATTR Value 1k
SYMBOL res -7072 -400 R0
SYMATTR InstName R22
SYMATTR Value 1k
SYMBOL res -6608 -400 R0
SYMATTR InstName R23
SYMATTR Value 1k
SYMBOL res -6144 -400 R0
SYMATTR InstName R24
SYMATTR Value 1k
SYMBOL res -6384 -400 R0
SYMATTR InstName R25
SYMATTR Value 1k
SYMBOL voltage -7520 -416 R180
WINDOW 0 24 96 Left 2
WINDOW 3 24 16 Invisible 2
WINDOW 123 0 0 Left 0
WINDOW 39 0 0 Left 0
SYMATTR InstName B1
SYMATTR Value PWL(24.55 0 24.550000000001 5 28.15 5 28.150000000001 0)
SYMBOL voltage -7280 -416 R180
WINDOW 0 24 96 Left 2
WINDOW 3 24 16 Invisible 2
WINDOW 123 0 0 Left 0
WINDOW 39 0 0 Left 0
SYMATTR InstName A1
SYMATTR Value PWL(20.45 0 20.450000000001 5 24.05 5 24.050000000001 0)
SYMBOL voltage -7056 -416 R180
WINDOW 0 24 96 Left 2
WINDOW 3 24 68 Invisible 2
WINDOW 123 0 0 Left 0
WINDOW 39 0 0 Left 0
SYMATTR InstName G1
SYMATTR Value PWL(16.35 0 16.350000000001 5 19.95 5 19.950000000001 0)
SYMBOL voltage -6832 -416 R180
WINDOW 0 24 96 Left 2
WINDOW 3 24 68 Invisible 2
WINDOW 123 0 0 Left 0
WINDOW 39 0 0 Left 0
SYMATTR InstName F1
SYMATTR Value PWL(12.25 0 12.250000000001 5 15.85 5 15.850000000001 0)
SYMBOL voltage -6592 -416 R180
WINDOW 0 24 96 Left 2
WINDOW 3 24 68 Invisible 2
WINDOW 123 0 0 Left 0
WINDOW 39 0 0 Left 0
SYMATTR InstName E1
SYMATTR Value PWL(8.15 0 8.150000000001 5 11.75 5 11.750000000001 0)
SYMBOL voltage -6368 -416 R180
WINDOW 0 24 96 Left 2
WINDOW 3 24 68 Invisible 2
WINDOW 123 0 0 Left 0
WINDOW 39 0 0 Left 0
SYMATTR InstName D1
SYMATTR Value PWL(4.05 0 4.050000000001 5 7.65 5 7.650000000001 0)
SYMBOL voltage -6128 -416 R180
WINDOW 0 24 96 Left 2
WINDOW 3 24 68 Invisible 2
WINDOW 123 0 0 Left 0
WINDOW 39 0 0 Left 0
SYMATTR InstName C4
SYMATTR Value PWL(0 0 0.049999999999 0 0.05 5 3.65 5 3.650000000001 0)
SYMBOL Opamps\\LT1366 -7264 608 R0
SYMATTR InstName U4
SYMBOL res -7184 560 R90
WINDOW 0 0 56 VBottom 2
WINDOW 3 32 56 VTop 2
SYMATTR InstName R26
SYMATTR Value 250k
SYMBOL res -7440 384 R180
WINDOW 0 36 76 Left 2
WINDOW 3 36 40 Left 2
SYMATTR InstName R27
SYMATTR Value 250k
SYMBOL res -7200 384 R180
WINDOW 0 36 76 Left 2
WINDOW 3 36 40 Left 2
SYMATTR InstName R28
SYMATTR Value 250k
SYMBOL res -6976 384 R180
WINDOW 0 36 76 Left 2
WINDOW 3 36 40 Left 2
SYMATTR InstName R29
SYMATTR Value 250k
SYMBOL res -6736 384 R180
WINDOW 0 36 76 Left 2
WINDOW 3 36 40 Left 2
SYMATTR InstName R30
SYMATTR Value 250k
SYMBOL res -6512 384 R180
WINDOW 0 36 76 Left 2
WINDOW 3 36 40 Left 2
SYMATTR InstName R31
SYMATTR Value 250k
SYMBOL res -6288 384 R180
WINDOW 0 36 76 Left 2
WINDOW 3 36 40 Left 2
SYMATTR InstName R32
SYMATTR Value 250k
SYMBOL res -6048 384 R180
WINDOW 0 36 76 Left 2
WINDOW 3 36 40 Left 2
SYMATTR InstName R33
SYMATTR Value 250k
SYMBOL Opamps\\LT1366 -6864 624 R0
SYMATTR InstName U5
SYMBOL res -6976 656 R90
WINDOW 0 0 56 VBottom 2
WINDOW 3 32 56 VTop 2
SYMATTR InstName R34
SYMATTR Value 100k
SYMBOL res -6784 576 R90
WINDOW 0 0 56 VBottom 2
WINDOW 3 32 56 VTop 2
SYMATTR InstName R35
SYMATTR Value 100k
SYMBOL res -6208 -192 R0
SYMATTR InstName R36
SYMATTR Value 2.5k
SYMBOL res -6080 -192 R0
SYMATTR InstName R37
SYMATTR Value 1k
SYMBOL res -6448 -192 R0
SYMATTR InstName R38
SYMATTR Value 4.5k
SYMBOL res -6320 -192 R0
SYMATTR InstName R39
SYMATTR Value 1k
SYMBOL res -6672 -192 R0
SYMATTR InstName R40
SYMATTR Value 1.495k
SYMBOL res -6544 -192 R0
SYMATTR InstName R41
SYMATTR Value 2.5k
SYMBOL res -7136 -192 R0
SYMATTR InstName R42
SYMATTR Value 1.3k
SYMBOL res -7008 -192 R0
SYMATTR InstName R43
SYMATTR Value 9.5k
SYMBOL res -7360 -192 R0
SYMATTR InstName R44
SYMATTR Value 1.608k
SYMBOL res -7232 -192 R0
SYMATTR InstName R45
SYMATTR Value 7k
SYMBOL res -5824 32 R0
SYMATTR InstName R46
SYMATTR Value 4k
SYMBOL res -5824 208 R0
SYMATTR InstName R47
SYMATTR Value 1k
SYMBOL Opamps\\LT1366 -6080 528 R0
SYMATTR InstName U6
SYMBOL res -6000 480 R90
WINDOW 0 0 56 VBottom 2
WINDOW 3 32 56 VTop 2
SYMATTR InstName R48
SYMATTR Value 100k
SYMBOL res -6224 560 R90