Version 4
SHEET 1 2916 1016
WIRE 2064 -384 2032 -384
WIRE 1952 -320 1952 -384
WIRE 1648 -304 1648 -400
WIRE 1616 -288 1584 -288
WIRE -704 -272 -704 -304
WIRE 1888 -272 1680 -272
WIRE -1184 -224 -1184 -256
WIRE 1584 -192 1584 -288
WIRE 1952 -192 1952 -224
WIRE 1952 -192 1584 -192
WIRE -704 -176 -704 -192
WIRE -704 -64 -704 -96
WIRE 1952 -64 1952 -112
WIRE 1648 -48 1648 -240
WIRE -96 0 -272 0
WIRE 688 0 512 0
WIRE 336 16 320 16
WIRE 448 16 416 16
WIRE -208 48 -208 -80
WIRE 576 48 576 -80
WIRE -272 64 -272 0
WIRE -240 64 -272 64
WIRE 384 64 384 -48
WIRE 512 64 512 0
WIRE 544 64 512 64
WIRE -256 80 -416 80
WIRE -96 80 -96 0
WIRE -96 80 -176 80
WIRE 32 80 -96 80
WIRE 144 80 112 80
WIRE 192 80 144 80
WIRE 320 80 320 16
WIRE 320 80 272 80
WIRE 352 80 320 80
WIRE 688 80 688 0
WIRE 688 80 608 80
WIRE 768 80 688 80
WIRE -256 96 -256 80
WIRE -240 96 -256 96
WIRE 448 96 448 16
WIRE 448 96 416 96
WIRE 544 96 448 96
WIRE -1216 112 -1216 80
WIRE 352 112 320 112
WIRE 144 128 144 80
WIRE 320 128 320 112
WIRE 384 176 384 128
WIRE -224 192 -400 192
WIRE -208 192 -208 112
WIRE 48 192 -80 192
WIRE 96 192 48 192
WIRE 576 192 576 112
WIRE 48 224 48 192
WIRE -336 240 -336 112
WIRE -400 256 -400 192
WIRE -368 256 -400 256
WIRE -224 272 -224 192
WIRE -224 272 -304 272
WIRE -80 272 -80 192
WIRE -80 272 -224 272
WIRE -368 288 -416 288
WIRE 128 304 48 304
WIRE 144 304 144 224
WIRE 144 304 128 304
WIRE 128 320 128 304
WIRE -336 384 -336 304
FLAG 384 -48 +V
FLAG 384 176 -V
FLAG 320 128 0
FLAG 128 320 0
FLAG -704 -192 0
FLAG -704 -304 +V
FLAG -704 -64 -V
FLAG -880 256 CSig1
FLAG -880 288 Trig1
FLAG -1184 -144 0
FLAG -1184 -256 Trig1
FLAG -1216 192 0
FLAG -1216 80 CSig1
FLAG -208 -80 +V
FLAG -208 192 -V
FLAG 1648 -400 +V
FLAG 1648 -48 -V
FLAG 576 -80 +V
FLAG 576 192 -V
FLAG 2064 -384 0
FLAG -496 80 0
FLAG -336 112 +V
FLAG -336 384 -V
FLAG 1952 16 0
SYMBOL Opamps\\LT1366 384 32 R0
SYMATTR InstName U1
SYMBOL res 432 0 R90
WINDOW 0 0 56 VBottom 2
WINDOW 3 32 56 VTop 2
SYMATTR InstName R1
SYMATTR Value 22k
SYMBOL res 288 64 R90
WINDOW 0 0 56 VBottom 2
WINDOW 3 32 56 VTop 2
SYMATTR InstName R2
SYMATTR Value 100
SYMBOL res 128 64 R90
WINDOW 0 0 56 VBottom 2
WINDOW 3 32 56 VTop 2
SYMATTR InstName R3
SYMATTR Value 10k
SYMBOL njf 96 128 R0
SYMATTR InstName J1
SYMATTR Value J113
SYMBOL res 32 208 R0
SYMATTR InstName R4
SYMATTR Value 1Meg
SYMBOL voltage -704 -288 R0
WINDOW 123 0 0 Left 0
WINDOW 39 0 0 Left 0
SYMATTR InstName V1
SYMATTR Value 40
SYMBOL voltage -704 -192 R0
WINDOW 123 0 0 Left 0
WINDOW 39 0 0 Left 0
SYMATTR InstName V2
SYMATTR Value 40
SYMBOL envelope2 -656 272 R0
SYMATTR InstName X1
SYMBOL voltage -1184 -240 R0
SYMATTR InstName V3
SYMATTR Value PULSE(0 3 50m 1p 1p 5 6 2)
SYMBOL voltage -1216 96 R0
WINDOW 123 0 0 Left 0
WINDOW 39 0 0 Left 0
SYMATTR InstName V5
SYMATTR Value SINE(0 5 440)
SYMBOL Opamps\\LT1366 -208 16 R0
SYMATTR InstName U2
SYMBOL res 1936 -208 R0
SYMATTR InstName R5
SYMATTR Value 8
SYMBOL npn 1888 -320 R0
SYMATTR InstName Q1
SYMATTR Value 2N2222
SYMBOL Opamps\\LT1366 576 16 R0
SYMATTR InstName U4
SYMBOL voltage 1936 -384 R270
WINDOW 0 32 56 VTop 2
WINDOW 3 -32 56 VBottom 2
WINDOW 123 0 0 Left 0
WINDOW 39 0 0 Left 0
SYMATTR InstName V6
SYMATTR Value 30
SYMBOL Opamps\\LT1366 1648 -336 R0
SYMATTR InstName U3
SYMBOL voltage -400 80 R90
WINDOW 0 -32 56 VBottom 2
WINDOW 3 32 56 VTop 2
WINDOW 123 0 0 Left 0
WINDOW 39 0 0 Left 0
SYMATTR InstName V4
SYMATTR Value SINE(0 5 440)
SYMBOL Opamps\\LT1366 -336 208 R0
SYMATTR InstName U6
SYMBOL voltage 1952 -80 R0
WINDOW 123 0 0 Left 0
WINDOW 39 0 0 Left 0
SYMATTR InstName V7
SYMATTR Value -30
TEXT -1248 344 Left 2 !.tran 5 uic
TEXT -1280 400 Left 2 !.options abstol = 1e-10
TEXT -1272 456 Left 2 !.options reltol = 0.003
