Version 4
SHEET 1 880 680
WIRE -704 -272 -704 -304
WIRE -1184 -224 -1184 -256
WIRE -704 -176 -704 -192
WIRE -704 -64 -704 -96
WIRE -96 0 -272 0
WIRE 336 16 320 16
WIRE 448 16 416 16
WIRE -208 48 -208 -80
WIRE -272 64 -272 0
WIRE -240 64 -272 64
WIRE 384 64 384 -48
WIRE -256 80 -416 80
WIRE -96 80 -96 0
WIRE -96 80 -176 80
WIRE 32 80 -96 80
WIRE 144 80 112 80
WIRE 192 80 144 80
WIRE 320 80 320 16
WIRE 320 80 272 80
WIRE 352 80 320 80
WIRE -256 96 -256 80
WIRE -240 96 -256 96
WIRE 448 96 448 16
WIRE 448 96 416 96
WIRE 528 96 448 96
WIRE -1216 112 -1216 80
WIRE 352 112 320 112
WIRE 144 128 144 80
WIRE 320 128 320 112
WIRE 384 176 384 128
WIRE -208 192 -208 112
WIRE -96 192 -128 192
WIRE 48 192 -16 192
WIRE 96 192 48 192
WIRE -128 208 -128 192
WIRE 48 224 48 192
WIRE 128 304 48 304
WIRE 144 304 144 224
WIRE 144 304 128 304
WIRE 128 320 128 304
FLAG 384 -48 +V
FLAG 384 176 -V
FLAG 320 128 0
FLAG 128 320 0
FLAG -704 -192 0
FLAG -704 -304 +V
FLAG -704 -64 -V
FLAG -128 208 0
FLAG -880 112 CSig1
FLAG -880 144 Trig1
FLAG -1184 -144 0
FLAG -1184 -256 Trig1
FLAG -1216 192 0
FLAG -1216 80 CSig1
FLAG -208 -80 +V
FLAG -208 192 -V
SYMBOL Opamps\\LT1366 384 32 R0
SYMATTR InstName U1
SYMBOL res 432 0 R90
WINDOW 0 0 56 VBottom 2
WINDOW 3 32 56 VTop 2
SYMATTR InstName R1
SYMATTR Value 22k
SYMBOL res 288 64 R90
WINDOW 0 0 56 VBottom 2
WINDOW 3 32 56 VTop 2
SYMATTR InstName R2
SYMATTR Value 100
SYMBOL res 128 64 R90
WINDOW 0 0 56 VBottom 2
WINDOW 3 32 56 VTop 2
SYMATTR InstName R3
SYMATTR Value 1k
SYMBOL njf 96 128 R0
SYMATTR InstName J1
SYMATTR Value J113
SYMBOL res 32 208 R0
SYMATTR InstName R4
SYMATTR Value 1Meg
SYMBOL voltage -704 -288 R0
WINDOW 123 0 0 Left 0
WINDOW 39 0 0 Left 0
SYMATTR InstName V1
SYMATTR Value 30
SYMBOL voltage -704 -192 R0
WINDOW 123 0 0 Left 0
WINDOW 39 0 0 Left 0
SYMATTR InstName V2
SYMATTR Value 30
SYMBOL voltage 0 192 R90
WINDOW 0 -32 56 VBottom 2
WINDOW 3 32 56 VTop 2
WINDOW 123 0 0 Left 0
WINDOW 39 0 0 Left 0
SYMATTR InstName V4
SYMATTR Value -2
SYMBOL envelope2 -656 128 R0
SYMATTR InstName X1
SYMBOL voltage -1184 -240 R0
SYMATTR InstName V3
SYMATTR Value PULSE(0 3 50m 1p 1p 5 6 2)
SYMBOL voltage -1216 96 R0
WINDOW 123 0 0 Left 0
WINDOW 39 0 0 Left 0
SYMATTR InstName V5
SYMATTR Value SINE(0 5 440)
SYMBOL Opamps\\LT1366 -208 16 R0
SYMATTR InstName U2
TEXT -1250 344 Left 2 !.dc V4 -20 15 0.25
