Version 4
SHEET 1 2916 1016
WIRE -704 -272 -704 -304
WIRE -1184 -224 -1184 -256
WIRE 832 -208 768 -208
WIRE 976 -208 912 -208
WIRE 1024 -208 976 -208
WIRE 1104 -208 1104 -240
WIRE 768 -192 768 -208
WIRE 848 -192 768 -192
WIRE 976 -192 976 -208
WIRE -704 -176 -704 -192
WIRE 848 -144 848 -192
WIRE 848 -144 832 -144
WIRE 880 -144 848 -144
WIRE 912 -144 880 -144
WIRE 880 -96 880 -144
WIRE -704 -64 -704 -96
WIRE 976 -48 976 -96
WIRE 976 -48 944 -48
WIRE -96 0 -272 0
WIRE 688 0 512 0
WIRE 976 0 976 -48
WIRE 336 16 320 16
WIRE 448 16 416 16
WIRE -208 48 -208 -80
WIRE 576 48 576 -80
WIRE -272 64 -272 0
WIRE -240 64 -272 64
WIRE 384 64 384 -48
WIRE 512 64 512 0
WIRE 544 64 512 64
WIRE -256 80 -416 80
WIRE -96 80 -96 0
WIRE -96 80 -176 80
WIRE 32 80 -96 80
WIRE 144 80 112 80
WIRE 192 80 144 80
WIRE 320 80 320 16
WIRE 320 80 272 80
WIRE 352 80 320 80
WIRE 688 80 688 0
WIRE 688 80 608 80
WIRE 768 80 768 -96
WIRE 768 80 688 80
WIRE -256 96 -256 80
WIRE -240 96 -256 96
WIRE 448 96 448 16
WIRE 448 96 416 96
WIRE 544 96 448 96
WIRE 880 96 880 0
WIRE 976 96 976 80
WIRE 976 96 880 96
WIRE 1088 96 976 96
WIRE -1216 112 -1216 80
WIRE 352 112 320 112
WIRE 144 128 144 80
WIRE 320 128 320 112
WIRE 880 144 880 96
WIRE 384 176 384 128
WIRE -224 192 -400 192
WIRE -208 192 -208 112
WIRE 48 192 -80 192
WIRE 96 192 48 192
WIRE 576 192 576 112
WIRE 976 192 976 176
WIRE 976 192 944 192
WIRE 48 224 48 192
WIRE 768 224 768 80
WIRE 976 224 976 192
WIRE -336 240 -336 112
WIRE -400 256 -400 192
WIRE -368 256 -400 256
WIRE -224 272 -224 192
WIRE -224 272 -304 272
WIRE -80 272 -80 192
WIRE -80 272 -224 272
WIRE 848 272 832 272
WIRE 880 272 880 240
WIRE 880 272 848 272
WIRE 912 272 880 272
WIRE -368 288 -416 288
WIRE 128 304 48 304
WIRE 144 304 144 224
WIRE 144 304 128 304
WIRE 2816 304 2816 240
WIRE 128 320 128 304
WIRE 848 320 848 272
WIRE 848 320 768 320
WIRE 2480 320 2480 304
WIRE 2448 336 2416 336
WIRE 768 352 768 320
WIRE 832 352 768 352
WIRE 976 352 976 320
WIRE 976 352 912 352
WIRE 1008 352 976 352
WIRE 2608 352 2512 352
WIRE 2672 352 2608 352
WIRE -336 384 -336 304
WIRE 1088 384 1088 352
WIRE 2480 400 2480 384
WIRE 2416 416 2416 336
WIRE 2608 416 2416 416
WIRE 2672 416 2608 416
WIRE 2816 416 2816 400
WIRE 2816 416 2752 416
WIRE 2880 416 2816 416
WIRE 464 496 432 496
WIRE 352 560 352 496
WIRE 48 576 48 480
WIRE 16 592 -16 592
WIRE 288 608 80 608
WIRE -16 688 -16 592
WIRE 352 688 352 656
WIRE 352 688 -16 688
WIRE 352 816 352 768
WIRE 48 832 48 640
FLAG 384 -48 +V
FLAG 384 176 -V
FLAG 320 128 0
FLAG 128 320 0
FLAG -704 -192 0
FLAG -704 -304 +V
FLAG -704 -64 -V
FLAG -880 320 CSig1
FLAG -880 352 Trig1
FLAG -1184 -144 0
FLAG -1184 -256 Trig1
FLAG -1216 192 0
FLAG -1216 80 CSig1
FLAG -208 -80 +V
FLAG -208 192 -V
FLAG 48 480 +V
FLAG 48 832 -V
FLAG 576 -80 +V
FLAG 576 192 -V
FLAG 352 816 0
FLAG 464 496 0
FLAG 2896 240 0
FLAG 2480 304 +V
FLAG 2480 400 -V
FLAG -496 80 0
FLAG -336 112 +V
FLAG -336 384 -V
FLAG 1088 384 0
FLAG 1104 -240 0
FLAG 1088 96 VOut
SYMBOL Opamps\\LT1366 384 32 R0
SYMATTR InstName U1
SYMBOL res 432 0 R90
WINDOW 0 0 56 VBottom 2
WINDOW 3 32 56 VTop 2
SYMATTR InstName R1
SYMATTR Value 22k
SYMBOL res 288 64 R90
WINDOW 0 0 56 VBottom 2
WINDOW 3 32 56 VTop 2
SYMATTR InstName R2
SYMATTR Value 100
SYMBOL res 128 64 R90
WINDOW 0 0 56 VBottom 2
WINDOW 3 32 56 VTop 2
SYMATTR InstName R3
SYMATTR Value 1k
SYMBOL njf 96 128 R0
SYMATTR InstName J1
SYMATTR Value J113
SYMBOL res 32 208 R0
SYMATTR InstName R4
SYMATTR Value 1Meg
SYMBOL voltage -704 -288 R0
WINDOW 123 0 0 Left 0
WINDOW 39 0 0 Left 0
SYMATTR InstName V1
SYMATTR Value 40
SYMBOL voltage -704 -192 R0
WINDOW 123 0 0 Left 0
WINDOW 39 0 0 Left 0
SYMATTR InstName V2
SYMATTR Value 40
SYMBOL envelope2 -656 336 R0
SYMATTR InstName X1
SYMBOL voltage -1184 -240 R0
SYMATTR InstName V3
SYMATTR Value PULSE(0 3 50m 1p 1p 5 6 2)
SYMBOL voltage -1216 96 R0
WINDOW 123 0 0 Left 0
WINDOW 39 0 0 Left 0
SYMATTR InstName V5
SYMATTR Value SINE(0 5 440)
SYMBOL Opamps\\LT1366 -208 16 R0
SYMATTR InstName U2
SYMBOL res 336 672 R0
SYMATTR InstName R5
SYMATTR Value 8
SYMBOL npn 288 560 R0
SYMATTR InstName Q1
SYMATTR Value 2N2222
SYMBOL Opamps\\LT1366 576 16 R0
SYMATTR InstName U4
SYMBOL voltage 336 496 R270
WINDOW 0 32 56 VTop 2
WINDOW 3 -32 56 VBottom 2
WINDOW 123 0 0 Left 0
WINDOW 39 0 0 Left 0
SYMATTR InstName V6
SYMATTR Value 30
SYMBOL Opamps\\LT1366 2480 288 R0
SYMATTR InstName U5
SYMBOL cap 2592 352 R0
SYMATTR InstName C1
SYMATTR Value 100p
SYMBOL res 2768 336 R90
WINDOW 0 0 56 VBottom 2
WINDOW 3 32 56 VTop 2
SYMATTR InstName R6
SYMATTR Value 10
SYMBOL res 2768 400 R90
WINDOW 0 0 56 VBottom 2
WINDOW 3 32 56 VTop 2
SYMATTR InstName R7
SYMATTR Value 1k
SYMBOL npn 2752 304 R0
SYMATTR InstName Q2
SYMATTR Value 2N2222
SYMBOL voltage 2800 240 R270
WINDOW 0 32 56 VTop 2
WINDOW 3 -32 56 VBottom 2
WINDOW 123 0 0 Left 0
WINDOW 39 0 0 Left 0
SYMATTR InstName V7
SYMATTR Value 6
SYMBOL Opamps\\LT1366 48 544 R0
SYMATTR InstName U3
SYMBOL voltage -400 80 R90
WINDOW 0 -32 56 VBottom 2
WINDOW 3 32 56 VTop 2
WINDOW 123 0 0 Left 0
WINDOW 39 0 0 Left 0
SYMATTR InstName V4
SYMATTR Value SINE(0 5 440)
SYMBOL Opamps\\LT1366 -336 208 R0
SYMATTR InstName U6
SYMBOL npn 912 -192 R0
SYMATTR InstName Q3
SYMATTR Value 2N2222
SYMBOL pnp 912 320 M180
SYMATTR InstName Q4
SYMATTR Value 2N2907
SYMBOL voltage 1008 -208 R270
WINDOW 0 32 56 VTop 2
WINDOW 3 -32 56 VBottom 2
WINDOW 123 0 0 Left 0
WINDOW 39 0 0 Left 0
SYMATTR InstName V8
SYMATTR Value 15
SYMBOL voltage 992 352 M90
WINDOW 0 -32 56 VBottom 2
WINDOW 3 32 56 VTop 2
WINDOW 123 0 0 Left 0
WINDOW 39 0 0 Left 0
SYMATTR InstName V9
SYMATTR Value -15
SYMBOL pnp 832 320 R180
SYMATTR InstName Q5
SYMATTR Value 2N2907
SYMBOL npn 832 -192 M0
SYMATTR InstName Q6
SYMATTR Value 2N2222
SYMBOL npn 944 -96 M0
SYMATTR InstName Q7
SYMATTR Value 2N2222
SYMBOL res 960 -16 R0
SYMATTR InstName R8
SYMATTR Value 1.5
SYMBOL res 960 80 R0
SYMATTR InstName R9
SYMATTR Value 1.5
SYMBOL pnp 944 240 R180
SYMATTR InstName Q8
SYMATTR Value 2N2907
SYMBOL res 928 -224 R90
WINDOW 0 0 56 VBottom 2
WINDOW 3 32 56 VTop 2
SYMATTR InstName R10
SYMATTR Value 10k
SYMBOL res 928 336 R90
WINDOW 0 0 56 VBottom 2
WINDOW 3 32 56 VTop 2
SYMATTR InstName R11
SYMATTR Value 10k
TEXT -1248 344 Left 2 !.tran 5 uic
