Version 4
SHEET 1 880 680
WIRE 128 144 -16 144
WIRE 320 144 224 144
WIRE 592 144 384 144
WIRE -16 224 -16 144
WIRE 48 224 -16 224
WIRE 128 240 128 144
WIRE 128 240 112 240
WIRE 144 240 128 240
WIRE 224 240 224 144
WIRE 320 240 304 240
WIRE 448 240 320 240
WIRE 48 256 -16 256
WIRE 592 256 592 144
WIRE 592 256 512 256
WIRE 608 256 592 256
WIRE 720 256 688 256
WIRE 784 256 720 256
WIRE 800 256 784 256
WIRE 448 272 400 272
WIRE 720 304 720 256
WIRE 320 336 320 240
WIRE 320 336 272 336
WIRE 400 384 400 272
WIRE 432 384 400 384
WIRE 592 384 592 256
WIRE 592 384 512 384
WIRE 400 400 400 384
WIRE 272 496 272 400
WIRE 400 496 400 480
WIRE 400 496 272 496
WIRE 400 528 400 496
FLAG 400 528 0
FLAG 480 224 vee
FLAG 480 288 vcc
FLAG 80 208 vcc
FLAG 80 272 vee
FLAG -16 256 in
IOPIN -16 256 In
FLAG 720 368 0
FLAG 784 256 out
IOPIN 784 256 Out
SYMBOL Opamps/LT1366 480 320 M180
SYMATTR InstName U1
SYMBOL res 240 224 R90
WINDOW 0 0 56 VBottom 2
WINDOW 3 32 56 VTop 2
SYMATTR InstName R1
SYMATTR Value 10k
SYMBOL res 416 496 R180
WINDOW 0 36 76 Left 2
WINDOW 3 36 40 Left 2
SYMATTR InstName R2
SYMATTR Value 1k
SYMBOL res 416 400 R270
WINDOW 0 32 56 VTop 2
WINDOW 3 0 56 VBottom 2
SYMATTR InstName R3
SYMATTR Value 2k
SYMBOL cap 256 336 R0
SYMATTR InstName C1
SYMATTR Value 100n
SYMBOL res 320 224 R90
WINDOW 0 0 56 VBottom 2
WINDOW 3 32 56 VTop 2
SYMATTR InstName R4
SYMATTR Value 10k
SYMBOL cap 384 128 R90
WINDOW 0 0 32 VBottom 2
WINDOW 3 32 32 VTop 2
SYMATTR InstName C2
SYMATTR Value 100n
SYMBOL Opamps/LT1366 80 176 R0
SYMATTR InstName U2
SYMBOL res 704 240 R90
WINDOW 0 0 56 VBottom 2
WINDOW 3 32 56 VTop 2
SYMATTR InstName R5
SYMATTR Value 10k
SYMBOL cap 704 304 R0
SYMATTR InstName C3
SYMATTR Value 100n
