Version 4
SHEET 1 3220 680
WIRE -1072 -432 -1184 -432
WIRE -928 -432 -1072 -432
WIRE -720 -432 -928 -432
WIRE -1184 -416 -1184 -432
WIRE -1072 -400 -1072 -432
WIRE -928 -400 -928 -432
WIRE -720 -400 -720 -432
WIRE -1168 -240 -1312 -240
WIRE -928 -240 -928 -320
WIRE -928 -240 -1104 -240
WIRE -928 -192 -928 -240
WIRE -848 -192 -928 -192
WIRE -640 -192 -784 -192
WIRE -928 -160 -928 -192
WIRE 1136 -128 1104 -128
WIRE 1232 -128 1216 -128
WIRE -1312 -112 -1312 -240
WIRE -1280 -112 -1312 -112
WIRE -1184 -112 -1216 -112
WIRE -1152 -112 -1184 -112
WIRE -1072 -112 -1072 -320
WIRE -1072 -112 -1088 -112
WIRE -992 -112 -1072 -112
WIRE 1936 -112 1792 -112
WIRE 2096 -112 2000 -112
WIRE 2432 -112 2096 -112
WIRE 352 -48 320 -48
WIRE 464 -48 432 -48
WIRE 3120 -48 3120 -64
WIRE 3216 -16 3152 -16
WIRE 1104 0 1104 -128
WIRE 1104 0 896 0
WIRE 1136 0 1104 0
WIRE 3088 0 3008 0
WIRE 768 16 768 -16
WIRE 768 16 624 16
WIRE 1232 16 1232 -128
WIRE 1232 16 1200 16
WIRE 1392 16 1232 16
WIRE 1472 16 1472 -48
WIRE 1552 16 1472 16
WIRE 1792 16 1792 -112
WIRE 1792 16 1632 16
WIRE 1936 16 1792 16
WIRE 1136 32 1072 32
WIRE 2096 32 2096 -112
WIRE 2096 32 2000 32
WIRE 2256 32 2096 32
WIRE -1312 48 -1312 -112
WIRE -1184 48 -1184 -112
WIRE 768 48 768 16
WIRE 896 48 896 0
WIRE 1936 48 1680 48
WIRE 2368 48 2320 48
WIRE 2432 48 2368 48
WIRE -1072 64 -1072 -112
WIRE 2256 64 2208 64
WIRE 128 80 80 80
WIRE 256 80 208 80
WIRE 320 80 320 -48
WIRE 320 80 256 80
WIRE 352 80 320 80
WIRE 1072 80 1072 32
WIRE -928 96 -928 -64
WIRE -848 96 -928 96
WIRE 464 96 464 -48
WIRE 464 96 416 96
WIRE 704 96 464 96
WIRE 992 96 960 96
WIRE -848 112 -848 96
WIRE 352 112 320 112
WIRE -928 128 -928 96
WIRE 1472 128 1472 16
WIRE 1552 128 1472 128
WIRE 1680 128 1680 48
WIRE 1680 128 1632 128
WIRE 1968 128 1968 64
WIRE 3008 128 3008 0
WIRE 3072 128 3008 128
WIRE 3216 128 3216 -16
WIRE 3216 128 3152 128
WIRE 832 144 768 144
WIRE 896 144 832 144
WIRE 992 144 992 96
WIRE 320 160 320 112
WIRE 128 176 80 176
WIRE 256 176 256 80
WIRE 256 176 208 176
WIRE 1680 176 1680 128
WIRE 1792 176 1792 16
WIRE 2096 176 2032 176
WIRE 2208 176 2208 64
WIRE 2208 176 2176 176
WIRE 2240 176 2208 176
WIRE 2368 176 2368 48
WIRE 2368 176 2320 176
WIRE 3008 176 3008 128
WIRE -1312 224 -1312 128
WIRE -1184 224 -1184 128
WIRE -1184 224 -1312 224
WIRE -1072 224 -1072 144
WIRE -1072 224 -1184 224
WIRE -928 224 -928 208
WIRE -928 224 -1072 224
WIRE -848 224 -848 176
WIRE -848 224 -928 224
WIRE -928 240 -928 224
WIRE 624 240 624 16
WIRE 656 240 624 240
WIRE 752 240 720 240
WIRE 832 240 832 144
WIRE 128 272 80 272
WIRE 256 272 256 176
WIRE 256 272 208 272
WIRE 1456 288 1376 288
WIRE 1792 288 1792 256
WIRE 3008 288 3008 256
WIRE 1376 336 1376 288
WIRE 2032 336 1856 336
WIRE 2368 336 2368 176
WIRE 2368 336 2112 336
WIRE 624 368 624 240
WIRE 656 368 624 368
WIRE 752 384 752 240
WIRE 752 384 720 384
WIRE 832 384 832 320
WIRE 832 384 752 384
WIRE 656 400 624 400
WIRE 624 416 624 400
WIRE 1680 416 1680 256
WIRE 1792 416 1792 384
WIRE 1792 416 1680 416
WIRE 1376 448 1376 416
WIRE 1680 448 1680 416
FLAG 384 64 VCC
FLAG 384 128 VEE
FLAG 320 160 0
FLAG -192 -112 0
FLAG -96 -112 0
FLAG -96 -192 VEE
FLAG -192 -192 VCC
FLAG 80 80 KEY
FLAG 80 176 TUNE
FLAG -608 256 0
FLAG 688 416 VEE
FLAG 688 352 VCC
FLAG 624 416 0
FLAG 992 144 0
FLAG 768 -96 VCC
FLAG -496 256 0
FLAG -608 176 KEY
FLAG 1168 48 VEE
FLAG 1168 -16 VCC
FLAG 1072 80 0
FLAG 1968 0 VCC
FLAG 1680 448 0
FLAG 2288 16 VCC
FLAG 1968 128 0
FLAG 2288 80 0
FLAG 3120 16 VCC
FLAG 3120 -64 0
FLAG 3008 288 0
FLAG 1376 448 0
FLAG 2432 48 SQUARE
FLAG 2432 -112 TRIANGLE
FLAG 2032 176 VREF
FLAG 1456 288 VREF
FLAG 1392 16 INPUT
FLAG -928 240 0
FLAG -640 -192 LFO
FLAG -720 -320 0
FLAG -1184 -352 0
FLAG 80 272 LFO
FLAG 1472 -48 VCC
SYMBOL res 224 64 R90
WINDOW 0 0 56 VBottom 2
WINDOW 3 32 56 VTop 2
SYMATTR InstName R1
SYMATTR Value 100K
SYMBOL UniversalOpamp2 384 96 R0
SYMATTR InstName U1
SYMBOL res 448 -64 R90
WINDOW 0 0 56 VBottom 2
WINDOW 3 32 56 VTop 2
SYMATTR InstName R2
SYMATTR Value 1.8K
SYMBOL res 224 160 R90
WINDOW 0 0 56 VBottom 2
WINDOW 3 32 56 VTop 2
SYMATTR InstName R3
SYMATTR Value 100K
SYMBOL res 224 256 R90
WINDOW 0 0 56 VBottom 2
WINDOW 3 32 56 VTop 2
SYMATTR InstName R4
SYMATTR Value 100K
SYMBOL voltage -192 -208 R0
WINDOW 123 0 0 Left 2
WINDOW 39 0 0 Left 2
SYMATTR InstName V1
SYMATTR Value 5V
SYMBOL voltage -96 -208 R0
WINDOW 123 0 0 Left 2
WINDOW 39 0 0 Left 2
SYMATTR InstName V2
SYMATTR Value -4V
SYMBOL voltage -608 160 R0
WINDOW 123 0 0 Left 2
WINDOW 39 0 0 Left 2
SYMATTR InstName V3
SYMATTR Value 2.833
SYMBOL npn 704 48 R0
SYMATTR InstName Q1
SYMBOL npn 960 48 M0
SYMATTR InstName Q2
SYMBOL UniversalOpamp2 688 384 R0
SYMATTR InstName U3
SYMBOL cap 720 224 R90
WINDOW 0 0 32 VBottom 2
WINDOW 3 32 32 VTop 2
SYMATTR InstName C1
SYMATTR Value 1nF
SYMBOL res 816 224 R0
SYMATTR InstName R5
SYMATTR Value 1K
SYMBOL res 752 -112 R0
SYMATTR InstName R6
SYMATTR Value 1Meg
SYMBOL voltage -496 160 R0
WINDOW 123 0 0 Left 2
WINDOW 39 0 0 Left 2
SYMATTR InstName V4
SYMATTR Value PULSE(0 5 0 1ms 0 0 0)
SYMBOL UniversalOpamp2 1168 16 R0
SYMATTR InstName U4
SYMBOL res 1232 -144 R90
WINDOW 0 0 56 VBottom 2
WINDOW 3 32 56 VTop 2
SYMATTR InstName R7
SYMATTR Value 30K
SYMBOL UniversalOpamp2 1968 32 R0
SYMATTR InstName U2
SYMBOL res 1648 0 R90
WINDOW 0 0 56 VBottom 2
WINDOW 3 32 56 VTop 2
SYMATTR InstName R8
SYMATTR Value 100K
SYMBOL res 1648 112 R90
WINDOW 0 0 56 VBottom 2
WINDOW 3 32 56 VTop 2
SYMATTR InstName R9
SYMATTR Value 47K
SYMBOL res 1808 272 R180
WINDOW 0 36 76 Left 2
WINDOW 3 36 40 Left 2
SYMATTR InstName R10
SYMATTR Value 47K
SYMBOL res 1696 272 R180
WINDOW 0 36 76 Left 2
WINDOW 3 36 40 Left 2
SYMATTR InstName R11
SYMATTR Value 47K
SYMBOL npn 1856 288 M0
SYMATTR InstName Q3
SYMBOL cap 2000 -128 R90
WINDOW 0 0 32 VBottom 2
WINDOW 3 32 32 VTop 2
SYMATTR InstName C2
SYMATTR Value 3.8863nF
SYMBOL UniversalOpamp2 2288 48 R0
SYMATTR InstName U5
SYMBOL res 2336 160 R90
WINDOW 0 0 56 VBottom 2
WINDOW 3 32 56 VTop 2
SYMATTR InstName R12
SYMATTR Value 100K
SYMBOL res 2192 160 R90
WINDOW 0 0 56 VBottom 2
WINDOW 3 32 56 VTop 2
SYMATTR InstName R13
SYMATTR Value 47K
SYMBOL UniversalOpamp2 3120 -16 M180
SYMATTR InstName U6
SYMBOL res 3168 112 R90
WINDOW 0 0 56 VBottom 2
WINDOW 3 32 56 VTop 2
SYMATTR InstName R14
SYMATTR Value 14K
SYMBOL res 2992 160 R0
SYMATTR InstName R15
SYMATTR Value 1K
SYMBOL res 2128 320 R90
WINDOW 0 0 56 VBottom 2
WINDOW 3 32 56 VTop 2
SYMATTR InstName R16
SYMATTR Value 100K
SYMBOL voltage 1376 320 R0
WINDOW 123 0 0 Left 2
WINDOW 39 0 0 Left 2
SYMATTR InstName V6
SYMATTR Value 2.5V
SYMBOL res -1088 -416 R0
SYMATTR InstName R17
SYMATTR Value 47k
SYMBOL res -944 -416 R0
SYMATTR InstName R18
SYMATTR Value 3.9k
SYMBOL npn -992 -160 R0
SYMATTR InstName Q4
SYMATTR Value BC547B
SYMBOL res -1088 48 R0
SYMATTR InstName R19
SYMATTR Value 12k
SYMBOL res -944 112 R0
SYMATTR InstName R20
SYMATTR Value 1k
SYMBOL voltage -720 -416 R0
SYMATTR InstName V5
SYMATTR Value 9
SYMBOL res -1200 32 R0
SYMATTR InstName R21
SYMATTR Value 10k
SYMBOL res -1328 32 R0
SYMATTR InstName R22
SYMATTR Value 10k
SYMBOL cap -784 -208 R90
WINDOW 0 0 32 VBottom 2
WINDOW 3 32 32 VTop 2
SYMATTR InstName C3
SYMATTR Value 10µ
SYMBOL cap -1088 -128 R90
WINDOW 0 0 32 VBottom 2
WINDOW 3 32 32 VTop 2
SYMATTR InstName C4
SYMATTR Value 1µ
SYMBOL cap -1216 -128 R90
WINDOW 0 0 32 VBottom 2
WINDOW 3 32 32 VTop 2
SYMATTR InstName C5
SYMATTR Value 1µ
SYMBOL cap -1104 -256 R90
WINDOW 0 0 32 VBottom 2
WINDOW 3 32 32 VTop 2
SYMATTR InstName C6
SYMATTR Value 1µ
SYMBOL cap -864 112 R0
SYMATTR InstName C7
SYMATTR Value 470µ
SYMBOL cap -1200 -416 R0
SYMATTR InstName C8
SYMATTR Value 470µ
TEXT -752 328 Left 2 !.tran 7 uic
