Version 4
SHEET 1 2404 856
WIRE 480 -128 224 -128
WIRE 704 -112 624 -112
WIRE 880 -112 784 -112
WIRE 224 -32 224 -128
WIRE 288 -32 224 -32
WIRE 480 -16 480 -128
WIRE 480 -16 352 -16
WIRE 496 -16 480 -16
WIRE 624 -16 624 -112
WIRE 624 -16 576 -16
WIRE 688 -16 624 -16
WIRE -96 0 -160 0
WIRE 288 0 176 0
WIRE 880 0 880 -112
WIRE 880 0 752 0
WIRE 960 0 880 0
WIRE -416 16 -464 16
WIRE 688 16 672 16
WIRE -96 32 -144 32
WIRE 224 32 176 32
WIRE -416 96 -416 16
WIRE -144 96 -144 32
WIRE 1584 96 1520 96
WIRE 1072 112 816 112
WIRE 1584 128 1520 128
WIRE 1024 144 992 144
WIRE 1072 144 1024 144
WIRE 1584 160 1520 160
WIRE 224 176 224 32
WIRE 320 176 224 176
WIRE 816 176 816 112
WIRE 816 176 320 176
WIRE 1024 176 1024 144
WIRE 1072 176 1024 176
WIRE 1584 192 1520 192
WIRE 992 208 992 144
WIRE 992 208 912 208
WIRE 912 368 912 208
WIRE 912 368 864 368
FLAG -416 176 0
FLAG -464 16 key_pressed
FLAG 864 368 key_pressed
FLAG -160 0 key_pressed
FLAG 1584 192 vout_timer
FLAG 1584 160 shape-
FLAG 1584 128 shape+
FLAG 1584 96 OUTPUT
FLAG 720 -32 vcc
FLAG 720 32 vee
FLAG 672 16 0
FLAG -144 96 0
FLAG 320 -48 vcc
FLAG 320 16 vee
FLAG -720 400 0
FLAG -576 400 0
FLAG -720 320 vcc
FLAG -576 320 vee
FLAG 320 176 square_wave
FLAG 880 0 triangle_wave
SYMBOL voltage -416 80 R0
WINDOW 3 -192 136 Left 2
WINDOW 123 0 0 Left 0
WINDOW 39 0 0 Left 0
SYMATTR Value PULSE(0 3 1 1p 1p 6)
SYMATTR InstName V4
SYMBOL envelope+multiplier_final_block2 1296 144 R0
SYMATTR InstName ADSR_Envelope+multiplier
SYMBOL Opamps\\LT1366 720 -64 R0
SYMATTR InstName U3
SYMBOL res 800 -128 R90
WINDOW 0 0 56 VBottom 2
WINDOW 3 32 56 VTop 2
SYMATTR InstName R8
SYMATTR Value 2.5k
SYMBOL res 592 -32 R90
WINDOW 0 0 56 VBottom 2
WINDOW 3 32 56 VTop 2
SYMATTR InstName R9
SYMATTR Value 1k
SYMBOL VCOComplete+exp_converter_block 32 16 R0
SYMATTR InstName VCO+exp_converter
SYMBOL Opamps\\LT1366 320 -80 R0
SYMATTR InstName U1
SYMBOL voltage -720 304 R0
WINDOW 3 41 76 Left 2
WINDOW 123 0 0 Left 0
WINDOW 39 0 0 Left 0
SYMATTR Value 5
SYMATTR InstName V1
SYMBOL voltage -576 304 R0
WINDOW 3 41 76 Left 2
WINDOW 123 0 0 Left 0
WINDOW 39 0 0 Left 0
SYMATTR Value -5
SYMATTR InstName V2
TEXT -248 392 Left 2 !.options abstol=1e-10
TEXT -248 432 Left 2 !.options cshunt=1e-15
TEXT -232 320 Left 2 !.tran 0 7 1 uic
TEXT -248 464 Left 2 !.options reltol=0.003
