Version 4
SHEET 1 880 848
WIRE 592 48 -272 48
WIRE -272 352 -272 48
WIRE 384 144 320 144
WIRE 544 144 464 144
WIRE -224 352 -272 352
WIRE -112 352 -160 352
WIRE -32 352 -112 352
WIRE 96 352 32 352
WIRE 160 352 96 352
WIRE 304 352 224 352
WIRE 320 352 320 144
WIRE 320 352 304 352
WIRE 400 352 320 352
WIRE 544 368 544 144
WIRE 544 368 464 368
WIRE 592 368 592 48
WIRE 592 368 544 368
WIRE 640 368 592 368
WIRE 704 368 640 368
WIRE 400 384 384 384
WIRE -112 400 -112 352
WIRE 96 400 96 352
WIRE 304 400 304 352
WIRE -112 544 -112 480
WIRE 96 544 96 480
WIRE 96 544 -112 544
WIRE 304 544 304 480
WIRE 304 544 96 544
WIRE 384 544 384 384
WIRE 384 544 304 544
WIRE 384 576 384 544
FLAG 384 576 0
FLAG 432 480 0
FLAG 432 256 0
FLAG 640 448 0
SYMBOL cap 224 336 R90
WINDOW 0 0 32 VBottom 2
WINDOW 3 32 32 VTop 2
SYMATTR InstName C1
SYMATTR Value {x}
SYMBOL cap 32 336 R90
WINDOW 0 0 32 VBottom 2
WINDOW 3 32 32 VTop 2
SYMATTR InstName C2
SYMATTR Value {x}
SYMBOL cap -160 336 R90
WINDOW 0 0 32 VBottom 2
WINDOW 3 32 32 VTop 2
SYMATTR InstName C3
SYMATTR Value {x}
SYMBOL res 320 496 R180
WINDOW 0 36 76 Left 2
WINDOW 3 36 40 Left 2
SYMATTR InstName R1
SYMATTR Value {y}
SYMBOL res 112 496 R180
WINDOW 0 36 76 Left 2
WINDOW 3 36 40 Left 2
SYMATTR InstName R2
SYMATTR Value {y}
SYMBOL res -96 496 R180
WINDOW 0 36 76 Left 2
WINDOW 3 36 40 Left 2
SYMATTR InstName R3
SYMATTR Value {y}
SYMBOL res 368 160 R270
WINDOW 0 32 56 VTop 2
WINDOW 3 0 56 VBottom 2
SYMATTR InstName R4
SYMATTR Value 870k
SYMBOL voltage 432 352 R180
WINDOW 0 24 96 Left 2
WINDOW 3 24 16 Left 2
SYMATTR InstName V1
SYMATTR Value 5
SYMBOL voltage 432 384 R0
SYMATTR InstName V2
SYMATTR Value -5
SYMBOL res 624 352 R0
SYMATTR InstName R6
SYMATTR Value 5k
SYMBOL Opamps/LT1633 432 304 R0
SYMATTR InstName U2
TEXT 416 -40 Left 2 !.tran 10 uic
TEXT -152 112 Left 2 !.param x 2u
TEXT -144 144 Left 2 !.param y 40k
TEXT 424 -72 Left 2 !.lib LM741.lib
