Version 4
SHEET 1 880 680
WIRE 48 -144 -816 -144
WIRE -160 -48 -224 -48
WIRE 0 -48 -80 -48
WIRE 320 16 112 16
WIRE 432 128 432 112
WIRE 432 128 208 128
WIRE 112 144 112 16
WIRE 176 144 112 144
WIRE 432 144 432 128
WIRE -816 160 -816 -144
WIRE -768 160 -816 160
WIRE -656 160 -704 160
WIRE -576 160 -656 160
WIRE -448 160 -512 160
WIRE -384 160 -448 160
WIRE -240 160 -320 160
WIRE -224 160 -224 -48
WIRE -224 160 -240 160
WIRE -144 160 -224 160
WIRE 320 160 320 16
WIRE 320 160 240 160
WIRE 400 160 320 160
WIRE 0 176 0 -48
WIRE 0 176 -80 176
WIRE 48 176 48 -144
WIRE 48 176 0 176
WIRE 64 176 48 176
WIRE 176 176 64 176
WIRE 560 176 464 176
WIRE 624 176 560 176
WIRE 640 176 624 176
WIRE -144 192 -160 192
WIRE 400 192 336 192
WIRE 560 192 560 176
WIRE -656 208 -656 160
WIRE -448 208 -448 160
WIRE -240 208 -240 160
WIRE 208 224 208 192
WIRE 432 224 432 208
WIRE 432 224 208 224
WIRE 432 240 432 224
WIRE 336 288 336 192
WIRE 560 288 560 272
WIRE 560 288 336 288
WIRE -656 352 -656 288
WIRE -448 352 -448 288
WIRE -448 352 -656 352
WIRE -240 352 -240 288
WIRE -240 352 -448 352
WIRE -160 352 -160 192
WIRE -160 352 -240 352
WIRE -160 384 -160 352
WIRE 560 384 560 368
FLAG 64 176 Vout
FLAG 560 384 0
FLAG 624 176 Vout2
IOPIN 624 176 Out
FLAG 432 320 0
FLAG 432 32 0
FLAG -160 384 0
FLAG -112 288 0
FLAG -112 64 0
SYMBOL Opamps/LT1633 432 112 R0
SYMATTR InstName U1
SYMBOL res 544 176 R0
SYMATTR InstName R1
SYMATTR Value 10k
SYMBOL res 544 272 R0
SYMATTR InstName R2
SYMATTR Value 5k
SYMBOL voltage 432 224 R0
SYMATTR InstName V1
SYMATTR Value -5
SYMBOL voltage 432 128 R180
WINDOW 0 24 96 Left 2
WINDOW 3 24 16 Left 2
SYMATTR InstName V2
SYMATTR Value 5
SYMBOL Opamps/LT1633 208 96 R0
SYMATTR InstName U2
SYMBOL cap -320 144 R90
WINDOW 0 0 32 VBottom 2
WINDOW 3 32 32 VTop 2
SYMATTR InstName C1
SYMATTR Value {x}
SYMBOL cap -512 144 R90
WINDOW 0 0 32 VBottom 2
WINDOW 3 32 32 VTop 2
SYMATTR InstName C2
SYMATTR Value {x}
SYMBOL cap -704 144 R90
WINDOW 0 0 32 VBottom 2
WINDOW 3 32 32 VTop 2
SYMATTR InstName C3
SYMATTR Value {x}
SYMBOL res -224 304 R180
WINDOW 0 36 76 Left 2
WINDOW 3 36 40 Left 2
SYMATTR InstName R4
SYMATTR Value {y}
SYMBOL res -432 304 R180
WINDOW 0 36 76 Left 2
WINDOW 3 36 40 Left 2
SYMATTR InstName R5
SYMATTR Value {y}
SYMBOL res -640 304 R180
WINDOW 0 36 76 Left 2
WINDOW 3 36 40 Left 2
SYMATTR InstName R6
SYMATTR Value {y}
SYMBOL res -176 -32 R270
WINDOW 0 32 56 VTop 2
WINDOW 3 0 56 VBottom 2
SYMATTR InstName R7
SYMATTR Value 1.16Meg
SYMBOL voltage -112 160 R180
WINDOW 0 24 96 Left 2
WINDOW 3 24 16 Left 2
SYMATTR InstName V3
SYMATTR Value 5
SYMBOL voltage -112 192 R0
SYMATTR InstName V4
SYMATTR Value -5
SYMBOL Opamps/LT1633 -112 112 R0
SYMATTR InstName U3
TEXT -128 -232 Left 2 !.tran 20 uic
TEXT -696 -80 Left 2 !.param x 2u
TEXT -688 -48 Left 2 !.param y 40k
