Version 4
SHEET 1 992 680
WIRE 400 -160 160 -160
WIRE 160 -80 160 -160
WIRE 192 -80 160 -80
WIRE -224 -64 -240 -64
WIRE -192 -64 -224 -64
WIRE 400 -64 400 -160
WIRE 400 -64 256 -64
WIRE 448 -64 400 -64
WIRE 464 -64 448 -64
WIRE 0 -48 -48 -48
WIRE 192 -48 0 -48
WIRE -192 -16 -240 -16
WIRE -592 240 -656 240
WIRE -576 240 -592 240
WIRE -592 432 -656 432
WIRE -576 432 -592 432
WIRE -592 464 -656 464
WIRE -576 464 -592 464
WIRE -576 496 -656 496
FLAG -592 240 LFO_square
FLAG -592 432 SINE
FLAG -592 464 SQUARE
FLAG -576 496 TRI
FLAG -224 -64 LFO_square
FLAG -240 -16 SINE
FLAG 0 -48 s_square_sine
FLAG -656 48 0
FLAG -768 48 0
FLAG -768 -32 V+
FLAG -656 -32 V-
FLAG 224 -96 V+
FLAG 448 -64 sg_square_sine
FLAG 224 -32 V-
SYMBOL vco_sine -720 464 R0
SYMATTR InstName VCO1
SYMBOL summing_amp -128 -48 R0
WINDOW 0 8 -56 Bottom 2
SYMATTR InstName summing1
SYMBOL Opamps/LT1366 224 -128 R0
SYMATTR InstName U1
SYMBOL voltage -768 -48 R0
SYMATTR InstName V1
SYMATTR Value 5
SYMBOL voltage -656 -48 R0
SYMATTR InstName V2
SYMATTR Value -5
SYMBOL lfo_new_square -720 240 R0
SYMATTR InstName X2
TEXT -208 320 Left 2 !.tran 5 uic
