Version 4
SHEET 1 880 1100
SYMBOL SpecialFunctions/LTC6993-2 -864 -752 R0
SYMATTR InstName U1
