Version 4
SHEET 1 1784 832
WIRE 1104 -1120 864 -1120
WIRE 864 -1040 864 -1120
WIRE 896 -1040 864 -1040
WIRE 480 -1024 464 -1024
WIRE 512 -1024 480 -1024
WIRE 1104 -1024 1104 -1120
WIRE 1104 -1024 960 -1024
WIRE 1152 -1024 1104 -1024
WIRE 1168 -1024 1152 -1024
WIRE 704 -1008 656 -1008
WIRE 896 -1008 704 -1008
WIRE 512 -976 464 -976
WIRE 512 -880 464 -880
WIRE 704 -864 656 -864
WIRE 512 -848 464 -848
WIRE 112 -720 48 -720
WIRE 128 -720 112 -720
WIRE 112 -624 48 -624
WIRE 128 -624 112 -624
WIRE 112 -528 48 -528
WIRE 128 -528 112 -528
WIRE 112 -496 48 -496
WIRE 128 -496 112 -496
WIRE 128 -464 48 -464
FLAG 112 -720 LFO_square
FLAG 112 -624 LFO
FLAG 112 -528 SINE
FLAG 112 -496 SQUARE
FLAG 128 -464 TRI
FLAG 480 -1024 LFO_square
FLAG 464 -976 SINE
FLAG 704 -1008 s_square_sine
FLAG 464 -880 LFO
FLAG 464 -848 SQUARE
FLAG 704 -864 m_sine_square
FLAG 48 -912 0
FLAG -64 -912 0
FLAG -64 -992 V+
FLAG 48 -992 V-
FLAG 928 -1056 V+
FLAG 1152 -1024 sg_square_sine
FLAG 928 -992 0
SYMBOL vco_sine -16 -496 R0
SYMATTR InstName VCO
SYMBOL multiplier 576 -864 R0
SYMATTR InstName multiplier
SYMBOL summing_amp 576 -1008 R0
WINDOW 0 8 -56 Bottom 2
SYMATTR InstName summing1
SYMBOL Opamps/LT1366 928 -1088 R0
SYMATTR InstName U1
SYMBOL voltage -64 -1008 R0
SYMATTR InstName V1
SYMATTR Value 5
SYMBOL voltage 48 -1008 R0
SYMATTR InstName V2
SYMATTR Value -5
SYMBOL lfo_new 0 -624 R0
SYMATTR InstName X1
SYMBOL lfo_new_square -16 -720 R0
SYMATTR InstName X2
TEXT 1048 280 Left 2 !.options abstol = 1e-10
TEXT 1056 240 Left 2 !.options reltol=0.002
TEXT 1048 320 Left 2 !.options cshunt=1e-15
TEXT 496 -640 Left 2 !.tran 5 uic
