Version 4
SHEET 1 880 1356
WIRE -784 16 -832 16
WIRE -464 48 -512 48
WIRE -832 144 -832 16
WIRE -832 144 -864 144
WIRE -816 176 -864 176
WIRE -816 256 -816 176
WIRE -464 256 -464 48
WIRE -464 256 -688 256
WIRE -688 368 -688 256
WIRE -608 368 -688 368
WIRE -480 368 -544 368
WIRE -432 368 -480 368
WIRE -288 368 -352 368
WIRE 16 368 -288 368
WIRE 80 368 16 368
WIRE 208 368 160 368
WIRE -1376 400 -1376 256
WIRE -1312 400 -1376 400
WIRE 16 544 16 368
WIRE 96 544 16 544
WIRE -752 560 -752 368
WIRE -656 560 -752 560
WIRE 208 560 208 368
WIRE 208 560 160 560
WIRE 272 560 208 560
WIRE 432 560 336 560
WIRE -480 576 -480 368
WIRE -432 576 -480 576
WIRE -208 576 -352 576
WIRE 16 576 -208 576
WIRE 96 576 16 576
WIRE -656 640 -656 560
WIRE -656 640 -848 640
WIRE -208 640 -208 576
WIRE 16 640 16 576
WIRE -656 720 -656 640
WIRE -288 768 -288 368
WIRE -656 832 -656 800
WIRE -528 832 -656 832
WIRE -336 832 -448 832
WIRE -656 864 -656 832
FLAG -656 944 0
FLAG -288 864 0
FLAG -208 720 0
FLAG 16 736 0
FLAG -32 704 0
FLAG -96 224 0
FLAG -192 224 0
FLAG -192 144 vcc
FLAG -96 144 vee
FLAG 128 528 vcc
FLAG 128 592 vee
FLAG -784 48 0
SYMBOL lfo_new_square -912 624 R0
WINDOW 0 0 -56 Bottom 2
SYMATTR InstName X2
SYMBOL Opamps/LT1366 128 496 R0
SYMATTR InstName U1
SYMBOL polcap 272 576 R270
WINDOW 0 32 32 VTop 2
WINDOW 3 0 32 VBottom 2
SYMATTR InstName C1
SYMATTR Value 4.7µ
SYMBOL res 176 352 R90
WINDOW 0 0 56 VBottom 2
WINDOW 3 32 56 VTop 2
SYMATTR InstName 100k
SYMATTR Value 22k
SYMBOL res -224 624 R0
SYMATTR InstName R2
SYMATTR Value 10k
SYMBOL res -336 560 R90
WINDOW 0 0 56 VBottom 2
WINDOW 3 32 56 VTop 2
SYMATTR InstName R3
SYMATTR Value 10k
SYMBOL res -336 352 R90
WINDOW 0 0 56 VBottom 2
WINDOW 3 32 56 VTop 2
SYMATTR InstName R4
SYMATTR Value 10k
SYMBOL polcap -608 384 R270
WINDOW 0 32 32 VTop 2
WINDOW 3 0 32 VBottom 2
SYMATTR InstName C2
SYMATTR Value 4.7µ
SYMBOL res -432 816 R90
WINDOW 0 0 56 VBottom 2
WINDOW 3 32 56 VTop 2
SYMATTR InstName R5
SYMATTR Value 10k
SYMBOL res -640 960 R180
WINDOW 0 36 76 Left 2
WINDOW 3 36 40 Left 2
SYMATTR InstName R6
SYMATTR Value {x*100k}
SYMBOL res -640 816 R180
WINDOW 0 36 76 Left 2
WINDOW 3 36 40 Left 2
SYMATTR InstName R7
SYMATTR Value {(1-x)*100k}
SYMBOL voltage -192 128 R0
SYMATTR InstName V1
SYMATTR Value 12
SYMBOL voltage -96 128 R0
SYMATTR InstName V2
SYMATTR Value -12
SYMBOL envelope2 -1088 384 R0
SYMATTR InstName X1
SYMBOL Key_Input_with_trigger -1088 160 R0
SYMATTR InstName X3
SYMBOL VCOComplete+exp_converter_block -656 32 R0
SYMATTR InstName X4
SYMBOL pjf -32 640 R0
SYMATTR InstName J4
SYMATTR Value 2N5462
SYMBOL njf -336 768 R0
SYMATTR InstName J1
SYMATTR Value 2N5484
TEXT -584 960 Left 2 !.param x 0.08
TEXT -584 1008 Left 2 !.tran 20 uic
TEXT -320 976 Left 2 !.options abstol=1e-10
TEXT -320 1016 Left 2 !.options cshunt=1e-15
