Version 4
SHEET 1 1080 704
WIRE 128 -144 -80 -144
WIRE 320 -128 272 -128
WIRE 480 -128 400 -128
WIRE 16 -32 16 -64
WIRE -80 -16 -80 -144
WIRE -16 -16 -80 -16
WIRE 368 -16 368 -48
WIRE 128 0 128 -144
WIRE 128 0 48 0
WIRE 272 0 272 -128
WIRE 272 0 208 0
WIRE 336 0 272 0
WIRE -16 16 -128 16
WIRE 480 16 480 -128
WIRE 480 16 400 16
WIRE 16 80 16 32
WIRE 368 96 368 48
WIRE 480 160 480 16
WIRE 480 160 464 160
WIRE 336 256 128 256
WIRE 224 368 224 336
WIRE -16 384 -96 384
WIRE 128 384 128 256
WIRE 192 384 128 384
WIRE -128 400 -128 16
WIRE -96 400 -96 384
WIRE -96 400 -128 400
WIRE 336 400 336 256
WIRE 336 400 256 400
WIRE -96 416 -96 400
WIRE -96 416 -272 416
WIRE -16 416 -16 384
WIRE 192 416 -16 416
WIRE 336 416 336 400
WIRE 544 416 336 416
WIRE 640 416 608 416
WIRE 704 416 640 416
WIRE -96 432 -96 416
WIRE 464 448 464 160
WIRE 544 448 464 448
WIRE -640 480 -656 480
WIRE -592 480 -640 480
WIRE 224 480 224 432
WIRE 544 480 480 480
WIRE 688 480 608 480
WIRE 640 512 608 512
WIRE 704 512 640 512
WIRE -224 544 -320 544
WIRE 480 544 480 480
WIRE 480 544 -224 544
WIRE 80 608 80 576
WIRE 192 608 192 560
FLAG 608 448 0
FLAG 688 480 Vout
IOPIN 688 480 Out
FLAG 704 592 0
FLAG 640 576 0
FLAG 704 336 0
FLAG 640 352 0
FLAG 192 688 0
FLAG 80 688 0
FLAG 80 576 v+
FLAG 192 560 v-
FLAG 224 480 v-
FLAG 224 336 v+
FLAG -96 512 0
FLAG 368 96 v-
FLAG 368 -48 v+
FLAG 336 32 0
FLAG 16 80 v-
FLAG 16 -64 v+
FLAG 544 512 0
FLAG -352 176 0
FLAG -352 96 KEY
FLAG -640 480 KEY
FLAG -592 512 0
FLAG -224 624 0
SYMBOL AutoGenerated/AD633 576 464 R0
SYMATTR InstName U1
SYMBOL voltage 704 496 R0
SYMATTR InstName V1
SYMATTR Value 15
SYMBOL cap 624 512 R0
SYMATTR InstName C1
SYMATTR Value 0.1µ
SYMBOL voltage 704 432 R180
WINDOW 0 24 96 Left 2
WINDOW 3 24 16 Left 2
SYMATTR InstName V2
SYMATTR Value -15
SYMBOL cap 624 352 R0
SYMATTR InstName C2
SYMATTR Value 0.1µ
SYMBOL voltage 80 592 R0
SYMATTR InstName V3
SYMATTR Value 5
SYMBOL voltage 192 592 R0
SYMATTR InstName V4
SYMATTR Value -5
SYMBOL res -112 416 R0
SYMATTR InstName R1
SYMATTR Value 5k
SYMBOL res 416 -144 R90
WINDOW 0 0 56 VBottom 2
WINDOW 3 32 56 VTop 2
SYMATTR InstName R2
SYMATTR Value 1k
SYMBOL res 224 -16 R90
WINDOW 0 0 56 VBottom 2
WINDOW 3 32 56 VTop 2
SYMATTR InstName R3
SYMATTR Value 1k
SYMBOL Opamps/LT1633 16 -64 R0
SYMATTR InstName U2
SYMBOL Opamps/LT1633 368 -48 R0
SYMATTR InstName U3
SYMBOL Opamps/LT1633 224 336 R0
SYMATTR InstName U4
SYMBOL lfo_new -320 416 R0
SYMATTR InstName X1
SYMBOL lfo_new_square -352 288 R0
SYMATTR InstName X2
SYMBOL voltage -352 80 R0
WINDOW 123 0 0 Left 2
WINDOW 39 0 0 Left 2
SYMATTR InstName V5
SYMATTR Value 2.833
SYMBOL VCOComplete+exp_converter_block -464 496 R0
SYMATTR InstName X3
SYMBOL res -240 528 R0
SYMATTR InstName R4
SYMATTR Value 5k
TEXT 496 176 Left 2 !.tran 5 uic
TEXT 832 416 Left 2 !.options abstol=1e-10
TEXT 832 448 Left 2 !.options reltol=0.003
TEXT 832 480 Left 2 !.options cshunt=1e-15
