Version 4
SHEET 1 916 680
WIRE -128 -64 -336 -64
WIRE -240 48 -240 16
WIRE 160 48 -48 48
WIRE -336 64 -336 -64
WIRE -272 64 -336 64
WIRE -128 80 -128 -64
WIRE -128 80 -208 80
WIRE 224 80 -128 80
WIRE 416 80 304 80
WIRE 496 80 416 80
WIRE 656 80 576 80
WIRE -352 96 -384 96
WIRE -272 96 -352 96
WIRE -240 160 -240 112
WIRE 48 160 48 128
WIRE -48 176 -48 48
WIRE 16 176 -48 176
WIRE -352 192 -352 96
WIRE 160 192 160 48
WIRE 160 192 80 192
WIRE 224 192 160 192
WIRE 416 192 416 80
WIRE 416 192 304 192
WIRE -64 208 -96 208
WIRE 16 208 -64 208
WIRE 48 272 48 224
WIRE 544 320 544 288
WIRE 416 336 416 192
WIRE 512 336 416 336
WIRE 656 352 656 80
WIRE 656 352 576 352
WIRE 800 352 656 352
WIRE 512 368 448 368
WIRE 448 384 448 368
WIRE 544 432 544 384
FLAG 448 464 0
FLAG 800 352 Vout
IOPIN 800 352 Out
FLAG 48 272 v-
FLAG 48 128 v+
FLAG -240 160 v-
FLAG -240 16 v+
FLAG -64 288 0
FLAG -128 528 0
FLAG -240 528 0
FLAG -240 448 v+
FLAG -128 448 v-
FLAG 544 288 v+
FLAG 544 432 v-
FLAG -352 272 0
SYMBOL res 432 368 R0
SYMATTR InstName R1
SYMATTR Value 1k
SYMBOL res 592 64 R90
WINDOW 0 0 56 VBottom 2
WINDOW 3 32 56 VTop 2
SYMATTR InstName R2
SYMATTR Value 10k
SYMBOL res 320 64 R90
WINDOW 0 0 56 VBottom 2
WINDOW 3 32 56 VTop 2
SYMATTR InstName R3
SYMATTR Value 10k
SYMBOL res 320 176 R90
WINDOW 0 0 56 VBottom 2
WINDOW 3 32 56 VTop 2
SYMATTR InstName R4
SYMATTR Value 10k
SYMBOL res -80 192 R0
SYMATTR InstName R5
SYMATTR Value 5k
SYMBOL Opamps/LT1633 544 288 R0
SYMATTR InstName U1
SYMBOL Opamps/LT1633 48 128 R0
SYMATTR InstName U2
SYMBOL Opamps/LT1633 -240 16 R0
SYMATTR InstName U3
SYMBOL voltage -240 432 R0
SYMATTR InstName V1
SYMATTR Value 15
SYMBOL voltage -128 432 R0
SYMATTR InstName V2
SYMATTR Value -15
SYMBOL lfo_new_square -448 96 R0
SYMATTR InstName X1
SYMBOL vco_sine -160 176 R0
SYMATTR InstName VCO1
SYMBOL lfo_new -432 192 R0
SYMATTR InstName X2
SYMBOL res -368 176 R0
SYMATTR InstName R6
SYMATTR Value 5k
TEXT 128 432 Left 2 !.tran 5 uic
