Version 4
SHEET 1 880 796
WIRE -112 80 -128 80
WIRE 0 80 -32 80
WIRE 576 144 160 144
WIRE -224 160 -256 160
WIRE -128 160 -128 80
WIRE -128 160 -144 160
WIRE -112 160 -128 160
WIRE 0 176 0 80
WIRE 0 176 -48 176
WIRE -368 256 -544 256
WIRE 576 272 576 144
WIRE 656 272 576 272
WIRE 752 272 656 272
WIRE 0 288 0 176
WIRE 256 288 0 288
WIRE 400 288 320 288
WIRE 496 288 400 288
WIRE -544 304 -544 256
WIRE -480 304 -544 304
WIRE -368 320 -368 256
WIRE -368 320 -416 320
WIRE -256 320 -256 160
WIRE -256 320 -368 320
WIRE 256 320 -256 320
WIRE 576 320 576 272
WIRE 576 320 320 320
WIRE -480 336 -656 336
WIRE 256 352 48 352
WIRE 656 352 320 352
WIRE 752 352 656 352
WIRE 160 384 160 144
WIRE 256 384 160 384
WIRE 400 384 320 384
WIRE 496 384 400 384
WIRE -80 624 -256 624
WIRE -624 640 -800 640
WIRE -256 672 -256 624
WIRE -192 672 -256 672
WIRE -80 688 -80 624
WIRE -80 688 -128 688
WIRE 48 688 48 352
WIRE -192 704 -336 704
FLAG 400 208 0
FLAG 400 464 0
FLAG 496 224 0
FLAG 496 448 0
FLAG 656 208 0
FLAG -544 224 0
FLAG -656 224 0
FLAG -656 144 vcc
FLAG -544 144 vee
FLAG -80 144 vcc
FLAG -80 208 vee
FLAG -112 192 0
FLAG -160 656 vcc
FLAG -160 720 vee
FLAG -448 288 vcc
FLAG -448 352 vee
FLAG -624 672 0
FLAG 48 768 0
SYMBOL AutoGenerated/AD633 288 336 R0
SYMATTR InstName U1
SYMBOL voltage 400 368 R0
SYMATTR InstName V1
SYMATTR Value 15
SYMBOL voltage 400 304 R180
WINDOW 0 24 96 Left 2
WINDOW 3 24 16 Left 2
SYMATTR InstName V2
SYMATTR Value -15
SYMBOL cap 480 384 R0
SYMATTR InstName C1
SYMATTR Value 0.1µ
SYMBOL cap 480 224 R0
SYMATTR InstName C2
SYMATTR Value 0.1µ
SYMBOL res 672 368 R180
WINDOW 0 36 76 Left 2
WINDOW 3 36 40 Left 2
SYMATTR InstName R1
SYMATTR Value 2k
SYMBOL cap 672 272 R180
WINDOW 0 24 56 Left 2
WINDOW 3 24 8 Left 2
SYMATTR InstName C3
SYMATTR Value 1µ
SYMBOL lfo_new_square -720 352 R0
SYMATTR InstName X1
SYMBOL Key_Input_2VCOSFINAL -928 672 R0
SYMATTR InstName X3
SYMBOL Opamps/LT1366 -80 112 R0
SYMATTR InstName U2
SYMBOL voltage -656 128 R0
SYMATTR InstName V3
SYMATTR Value 5
SYMBOL voltage -544 128 R0
SYMATTR InstName V4
SYMATTR Value -5
SYMBOL res -128 144 R90
WINDOW 0 0 56 VBottom 2
WINDOW 3 32 56 VTop 2
SYMATTR InstName R2
SYMATTR Value 100k
SYMBOL res -16 64 R90
WINDOW 0 0 56 VBottom 2
WINDOW 3 32 56 VTop 2
SYMATTR InstName R3
SYMATTR Value 100k
SYMBOL Opamps/LT1366 -160 624 R0
SYMATTR InstName U3
SYMBOL vco_2keys -480 656 R0
SYMATTR InstName X2
SYMBOL Opamps/LT1366 -448 256 R0
SYMATTR InstName U4
SYMBOL Misc/signal 48 672 R0
SYMATTR InstName V5
SYMATTR Value SINE(0 3 440)
TEXT 112 -96 Left 2 !.tran 10 uic
TEXT 112 -56 Left 2 !.options abstol = 1e-10
TEXT 120 -24 Left 2 !.options cshunt = 1e-15
TEXT 120 16 Left 2 !.options reltol = 0.003
