Version 4
SHEET 1 3616 856
WIRE 480 -128 224 -128
WIRE 704 -112 624 -112
WIRE 880 -112 784 -112
WIRE 192 -32 176 -32
WIRE 224 -32 224 -128
WIRE 288 -32 224 -32
WIRE 480 -16 480 -128
WIRE 480 -16 352 -16
WIRE 496 -16 480 -16
WIRE 624 -16 624 -112
WIRE 624 -16 576 -16
WIRE 688 -16 624 -16
WIRE -96 0 -624 0
WIRE 192 0 176 0
WIRE 288 0 224 0
WIRE 880 0 880 -112
WIRE 880 0 752 0
WIRE 960 0 880 0
WIRE -224 16 -272 16
WIRE 688 16 672 16
WIRE -512 32 -624 32
WIRE -96 32 -176 32
WIRE 224 32 224 0
WIRE 224 32 176 32
WIRE -240 48 -272 48
WIRE -176 48 -176 32
WIRE -176 48 -240 48
WIRE 224 64 176 64
WIRE 2688 96 2448 96
WIRE 1984 128 1888 128
WIRE 960 144 960 0
WIRE 1088 144 960 144
WIRE 1984 160 1952 160
WIRE 224 176 224 64
WIRE 320 176 224 176
WIRE 816 176 320 176
WIRE -512 240 -512 32
WIRE 992 240 -512 240
WIRE 1952 464 1952 160
WIRE 992 480 992 240
WIRE 1952 480 1952 464
FLAG 720 -32 vcc
FLAG 720 32 vee
FLAG 672 16 0
FLAG 320 -48 vcc
FLAG 320 16 vee
FLAG -720 400 0
FLAG -576 400 0
FLAG -720 320 vcc
FLAG -576 320 vee
FLAG 320 176 square_wave
FLAG 960 0 triangle_wave
FLAG -240 128 0
FLAG 1888 128 0
FLAG 1952 464 0
SYMBOL LT1366 720 -64 R0
SYMATTR InstName U3
SYMBOL res 800 -128 R90
WINDOW 0 0 56 VBottom 2
WINDOW 3 32 56 VTop 2
SYMATTR InstName R8
SYMATTR Value 2.5k
SYMBOL res 592 -32 R90
WINDOW 0 0 56 VBottom 2
WINDOW 3 32 56 VTop 2
SYMATTR InstName R9
SYMATTR Value 1k
SYMBOL VCOComplete+exp_converter_block 32 16 R0
SYMATTR InstName VCO+exp_converter
SYMBOL LT1366 320 -80 R0
SYMATTR InstName U1
SYMBOL voltage -720 304 R0
WINDOW 3 41 76 Left 2
WINDOW 123 0 0 Left 0
WINDOW 39 0 0 Left 0
SYMATTR Value 5
SYMATTR InstName V1
SYMBOL voltage -576 304 R0
WINDOW 3 41 76 Left 2
WINDOW 123 0 0 Left 0
WINDOW 39 0 0 Left 0
SYMATTR Value -5
SYMATTR InstName V2
SYMBOL lfo_new_square -336 48 R0
SYMATTR InstName X1
SYMBOL Key_Input_with_trigger -848 16 R0
SYMATTR InstName X2
SYMBOL envelope2 2208 144 R0
SYMATTR InstName X3
SYMBOL res -256 32 R0
SYMATTR InstName R6
SYMATTR Value 5k
TEXT -248 392 Left 2 !.options abstol=1e-10
TEXT -248 432 Left 2 !.options cshunt=1e-15
TEXT -752 488 Left 2 !.tran 10 uic
