Version 4
SHEET 1 880 680
WIRE 64 192 32 192
WIRE 176 192 144 192
WIRE 208 192 176 192
WIRE 320 192 288 192
WIRE 352 192 320 192
WIRE 464 192 432 192
WIRE 528 192 464 192
WIRE -128 240 -256 240
WIRE -160 272 -256 272
FLAG 464 256 0
FLAG 320 256 0
FLAG 176 256 0
FLAG 528 192 SINE
IOPIN 528 192 Out
FLAG -160 272 SQUARE
IOPIN -160 272 Out
FLAG -128 240 TRI
IOPIN -128 240 Out
FLAG 32 192 SQUARE
SYMBOL VCOF -304 256 R0
SYMATTR InstName X1
SYMBOL res 160 176 R90
WINDOW 0 0 56 VBottom 2
WINDOW 3 32 56 VTop 2
SYMATTR InstName R1
SYMATTR Value 6k
SYMBOL res 304 176 R90
WINDOW 0 0 56 VBottom 2
WINDOW 3 32 56 VTop 2
SYMATTR InstName R2
SYMATTR Value 6k
SYMBOL res 448 176 R90
WINDOW 0 0 56 VBottom 2
WINDOW 3 32 56 VTop 2
SYMATTR InstName R3
SYMATTR Value 6k
SYMBOL cap 160 192 R0
SYMATTR InstName C1
SYMATTR Value 60n
SYMBOL cap 304 192 R0
SYMATTR InstName C2
SYMATTR Value 60n
SYMBOL cap 448 192 R0
SYMATTR InstName C3
SYMATTR Value 60n
TEXT 80 376 Left 2 !.tran 0.05 uic
