Version 4
SHEET 1 3312 3404
WIRE 512 1840 304 1840
WIRE 768 1856 720 1856
WIRE 896 1856 848 1856
WIRE -800 1920 -832 1920
WIRE -640 1920 -720 1920
WIRE 304 1920 304 1840
WIRE 352 1920 304 1920
WIRE -336 1936 -384 1936
WIRE -192 1936 -256 1936
WIRE -144 1936 -192 1936
WIRE -16 1936 -80 1936
WIRE 512 1936 512 1840
WIRE 512 1936 416 1936
WIRE 544 1936 512 1936
WIRE 576 1936 544 1936
WIRE 720 1936 720 1856
WIRE 720 1936 656 1936
WIRE 752 1936 720 1936
WIRE 352 1952 64 1952
WIRE 896 1952 896 1856
WIRE 896 1952 816 1952
WIRE 1056 1952 896 1952
WIRE 1296 1952 1136 1952
WIRE 1376 1952 1296 1952
WIRE -1248 1968 -1248 1936
WIRE 752 1968 704 1968
WIRE 704 2000 704 1968
WIRE -2304 2016 -2304 2000
WIRE -1792 2016 -1840 2016
WIRE -1680 2016 -1712 2016
WIRE 1120 2016 1120 2000
WIRE -832 2032 -832 1920
WIRE -832 2032 -1040 2032
WIRE -800 2032 -832 2032
WIRE -640 2048 -640 1920
WIRE -640 2048 -736 2048
WIRE -384 2048 -384 1936
WIRE -384 2048 -640 2048
WIRE -192 2048 -192 1936
WIRE -112 2048 -192 2048
WIRE -1248 2064 -1248 2048
WIRE -1248 2064 -1456 2064
WIRE -800 2064 -848 2064
WIRE -16 2064 -16 1936
WIRE -16 2064 -48 2064
WIRE 64 2064 64 1952
WIRE 64 2064 -16 2064
WIRE 144 2064 64 2064
WIRE -1248 2080 -1248 2064
WIRE -1040 2080 -1040 2032
WIRE -848 2080 -848 2064
WIRE -112 2080 -144 2080
WIRE 288 2080 208 2080
WIRE 1520 2080 288 2080
WIRE 144 2096 64 2096
WIRE -2304 2112 -2304 2016
WIRE -2304 2112 -2400 2112
WIRE -2048 2112 -2304 2112
WIRE -1920 2112 -1968 2112
WIRE -1840 2112 -1840 2016
WIRE -1840 2112 -1920 2112
WIRE -1792 2112 -1840 2112
WIRE -1680 2128 -1680 2016
WIRE -1680 2128 -1728 2128
WIRE -1312 2128 -1680 2128
WIRE -928 2128 -976 2128
WIRE -384 2128 -384 2048
WIRE -336 2128 -384 2128
WIRE -144 2128 -144 2080
WIRE -144 2128 -256 2128
WIRE -1792 2144 -1824 2144
WIRE -928 2176 -928 2128
WIRE 64 2176 64 2096
WIRE 128 2176 64 2176
WIRE 288 2176 288 2080
WIRE 288 2176 208 2176
WIRE -1824 2192 -1824 2144
WIRE -1248 2224 -1248 2176
WIRE -1136 2224 -1248 2224
WIRE -1040 2224 -1040 2176
WIRE -1040 2224 -1136 2224
WIRE -144 2224 -144 2208
WIRE -2128 2240 -2176 2240
WIRE -2064 2240 -2128 2240
WIRE -1920 2240 -1920 2112
WIRE -1920 2240 -1984 2240
WIRE 64 2256 64 2176
WIRE -192 2288 -192 2048
WIRE -1136 2320 -1136 2224
WIRE -1456 2336 -1456 2064
WIRE -1408 2336 -1456 2336
WIRE -1232 2336 -1344 2336
WIRE 64 2384 64 2336
WIRE -1456 2416 -1456 2336
WIRE -1328 2416 -1456 2416
WIRE -1232 2432 -1232 2336
WIRE -1232 2432 -1264 2432
WIRE -1136 2432 -1136 2400
WIRE -1136 2432 -1232 2432
WIRE -1328 2448 -1376 2448
WIRE -192 2464 -192 2368
WIRE -1376 2480 -1376 2448
WIRE -64 2512 -128 2512
WIRE 288 2512 288 2176
WIRE 288 2512 16 2512
WIRE -192 2608 -192 2560
FLAG -928 2176 0
FLAG -1248 1936 vcc
FLAG -1376 2480 0
FLAG -848 2080 0
FLAG -768 2016 vcc
FLAG -768 2080 vee
FLAG -1296 2400 vcc
FLAG -1296 2464 vee
FLAG -1760 2096 vcc
FLAG -1824 2192 0
FLAG -80 2032 vcc
FLAG 176 2048 vcc
FLAG 1376 1952 TRIANGLE
IOPIN 1376 1952 Out
FLAG -144 2224 0
FLAG -192 2608 0
FLAG 64 2384 0
FLAG 176 2112 vee
FLAG -80 2096 vee
FLAG -1760 2160 vee
FLAG 1520 2080 SQUARE
IOPIN 1520 2080 Out
FLAG 384 1904 vcc
FLAG 384 1968 vee
FLAG 704 2000 0
FLAG 784 1920 vcc
FLAG 784 1984 vee
FLAG 1296 2032 0
FLAG 544 1936 T1
FLAG -1696 1568 0
FLAG -1824 1568 0
FLAG -1824 1488 vcc
FLAG -1696 1488 vee
FLAG 1072 2000 0
FLAG -2304 2016 KEY
FLAG 1120 2016 KEY
FLAG -2128 2320 0
SYMBOL res -1264 1952 R0
SYMATTR InstName R34
SYMATTR Value 1Meg
SYMBOL cap -1344 2320 R90
WINDOW 0 0 32 VBottom 2
WINDOW 3 32 32 VTop 2
SYMATTR InstName C5
SYMATTR Value 1n
SYMBOL res -1152 2304 R0
SYMATTR InstName R35
SYMATTR Value 1k
SYMBOL res -704 1904 R90
WINDOW 0 0 56 VBottom 2
WINDOW 3 32 56 VTop 2
SYMATTR InstName R36
SYMATTR Value 30k
SYMBOL res -1952 2096 R90
WINDOW 0 0 56 VBottom 2
WINDOW 3 32 56 VTop 2
SYMATTR InstName R37
SYMATTR Value 100k
SYMBOL res -1696 2000 R90
WINDOW 0 0 56 VBottom 2
WINDOW 3 32 56 VTop 2
SYMATTR InstName R38
SYMATTR Value 2k
SYMBOL cap -80 1920 R90
WINDOW 0 0 32 VBottom 2
WINDOW 3 32 32 VTop 2
SYMATTR InstName C6
SYMATTR Value 2.08n
SYMBOL res -240 2112 R90
WINDOW 0 0 56 VBottom 2
WINDOW 3 32 56 VTop 2
SYMATTR InstName R39
SYMATTR Value 48k
SYMBOL res -160 2112 R0
SYMATTR InstName R40
SYMATTR Value 48k
SYMBOL res -208 2272 R0
SYMATTR InstName R41
SYMATTR Value 48k
SYMBOL npn -128 2464 M0
SYMATTR InstName Q7
SYMATTR Value 2N2222
SYMBOL res 32 2496 R90
WINDOW 0 0 56 VBottom 2
WINDOW 3 32 56 VTop 2
SYMATTR InstName R42
SYMATTR Value 50k
SYMBOL res 224 2160 R90
WINDOW 0 0 56 VBottom 2
WINDOW 3 32 56 VTop 2
SYMATTR InstName R43
SYMATTR Value 99k
SYMBOL res 80 2352 R180
WINDOW 0 36 76 Left 2
WINDOW 3 36 40 Left 2
SYMATTR InstName R44
SYMATTR Value 50k
SYMBOL res -240 1920 R90
WINDOW 0 0 56 VBottom 2
WINDOW 3 32 56 VTop 2
SYMATTR InstName R45
SYMATTR Value 100k
SYMBOL npn -1312 2080 R0
SYMATTR InstName Q8
SYMATTR Value 2N2222
SYMBOL npn -976 2080 M0
SYMATTR InstName Q9
SYMATTR Value 2N2222
SYMBOL LT1366 -1760 2064 R0
SYMATTR InstName U15
SYMBOL LT1366 -1296 2368 R0
SYMATTR InstName U16
SYMBOL LT1366 -768 1984 R0
SYMATTR InstName U17
SYMBOL LT1366 -80 2000 R0
SYMATTR InstName U18
SYMBOL LT1366 176 2016 R0
SYMATTR InstName U19
SYMBOL LT1366 384 1872 R0
SYMATTR InstName U27
SYMBOL LT1366 784 1888 R0
SYMATTR InstName U28
SYMBOL res 672 1920 R90
WINDOW 0 0 56 VBottom 2
WINDOW 3 32 56 VTop 2
SYMATTR InstName R64
SYMATTR Value 1k
SYMBOL res 864 1840 R90
WINDOW 0 0 56 VBottom 2
WINDOW 3 32 56 VTop 2
SYMATTR InstName R65
SYMATTR Value 2.5k
SYMBOL res 1280 1936 R0
SYMATTR InstName R66
SYMATTR Value 100k
SYMBOL voltage -1824 1472 R0
SYMATTR InstName V3
SYMATTR Value 5
SYMBOL voltage -1696 1472 R0
SYMATTR InstName V4
SYMATTR Value -5
SYMBOL lfo_new_square -2240 2256 R0
SYMATTR InstName X1
SYMBOL Key_Input_with_trigger -2624 2128 R0
SYMATTR InstName X2
SYMBOL res -1968 2224 R90
WINDOW 0 0 56 VBottom 2
WINDOW 3 32 56 VTop 2
SYMATTR InstName R1
SYMATTR Value 100k
SYMBOL sw 1040 1952 R270
SYMATTR InstName S1
SYMATTR Value M
SYMBOL res -2144 2224 R0
SYMATTR InstName R2
SYMATTR Value 5k
TEXT -2136 2136 Left 2 ;VIN ^
TEXT 2696 1504 Left 2 ;change KEY value depending on the key being simulated
TEXT 2672 1528 Left 2 ;there is a table I will provide in my VCO explained document
TEXT 2896 1560 Left 2 ;so bare with me
TEXT 2328 1312 Left 2 ;3.0833 523.25HZ
TEXT 2328 1344 Left 2 ;3.2500 587.33HZ\n3.4167 659.256\n3.5000 698.456Hz\n3.6667 783.99Hz\n3.8333 880Hz\n4.0000 987.766Hz
TEXT 1272 1848 Left 2 !.model M SW(Vt = 2)
TEXT -1584 1816 Left 2 !.tran 20 uic
TEXT -2072 1776 Left 2 !.options abstol = 1e-10
TEXT -2064 1808 Left 2 !.options cshunt = 1e-15
TEXT -2064 1848 Left 2 !.options reltol = 0.003
