Version 4
SHEET 1 1504 720
WIRE 464 -480 464 -496
WIRE 560 -448 496 -448
WIRE 432 -432 352 -432
WIRE 352 -304 352 -432
WIRE 416 -304 352 -304
WIRE 560 -304 560 -448
WIRE 560 -304 496 -304
WIRE 352 -256 352 -304
WIRE 352 -144 352 -176
WIRE 928 -112 928 -160
WIRE 1056 -112 1056 -160
WIRE 1264 -96 1264 -144
WIRE -288 -48 -320 -48
WIRE -192 -48 -208 -48
WIRE -80 -16 -128 -16
WIRE 64 -16 0 -16
WIRE 112 -16 64 -16
WIRE 240 -16 176 -16
WIRE 928 -16 928 -32
WIRE 1056 -16 1056 -32
WIRE 1264 0 1264 -16
WIRE 720 16 320 16
WIRE -1072 32 -1104 32
WIRE -960 32 -992 32
WIRE -320 80 -320 -48
WIRE -320 80 -528 80
WIRE -288 80 -320 80
WIRE -656 96 -656 64
WIRE -656 96 -800 96
WIRE -192 96 -192 -48
WIRE -192 96 -224 96
WIRE -128 96 -128 -16
WIRE -128 96 -192 96
WIRE 64 96 64 -16
WIRE 144 96 64 96
WIRE -288 112 -352 112
WIRE 240 112 240 -16
WIRE 240 112 208 112
WIRE 320 112 320 16
WIRE 320 112 240 112
WIRE 400 112 320 112
WIRE -656 128 -656 96
WIRE -528 128 -528 80
WIRE 144 128 112 128
WIRE 544 128 464 128
WIRE 720 128 544 128
WIRE 400 144 320 144
WIRE -1296 160 -1344 160
WIRE -1168 160 -1216 160
WIRE -1104 160 -1104 32
WIRE -1104 160 -1168 160
WIRE -1072 160 -1104 160
WIRE -352 160 -352 112
WIRE -960 176 -960 32
WIRE -960 176 -1008 176
WIRE -720 176 -960 176
WIRE -432 176 -464 176
WIRE -128 176 -128 96
WIRE -80 176 -128 176
WIRE 112 176 112 128
WIRE 112 176 0 176
WIRE -1072 192 -1104 192
WIRE -592 224 -656 224
WIRE -528 224 -592 224
WIRE -432 224 -432 176
WIRE 320 224 320 144
WIRE 384 224 320 224
WIRE 544 224 544 128
WIRE 544 224 464 224
WIRE -1104 240 -1104 192
WIRE -1296 256 -1344 256
WIRE -1168 256 -1168 160
WIRE -1168 256 -1216 256
WIRE 112 272 112 256
WIRE 320 304 320 224
WIRE -800 320 -800 96
WIRE -768 320 -800 320
WIRE -672 320 -704 320
WIRE -592 320 -592 224
WIRE 64 336 64 96
WIRE -1312 352 -1344 352
WIRE -1296 352 -1312 352
WIRE -1168 352 -1168 256
WIRE -1168 352 -1216 352
WIRE 320 432 320 384
WIRE -800 448 -800 320
WIRE -768 448 -800 448
WIRE -672 464 -672 320
WIRE -672 464 -704 464
WIRE -592 464 -592 400
WIRE -592 464 -672 464
WIRE -768 480 -800 480
WIRE -800 496 -800 480
WIRE 64 512 64 416
WIRE 192 560 128 560
WIRE 544 560 544 224
WIRE 544 560 272 560
WIRE 480 640 464 640
WIRE 496 640 480 640
WIRE 608 640 576 640
WIRE 640 640 608 640
WIRE 752 640 720 640
WIRE 784 640 752 640
WIRE 896 640 864 640
WIRE 960 640 896 640
WIRE 64 656 64 608
FLAG 176 80 vcc
FLAG 432 96 vcc
FLAG 720 16 vo1
IOPIN 720 16 Out
FLAG 720 128 vo2
IOPIN 720 128 Out
FLAG -192 96 vin
FLAG 112 272 0
FLAG 64 656 0
FLAG 928 -160 vcc
FLAG 928 -16 0
FLAG 1056 -160 vin
FLAG 1056 -16 0
FLAG 1264 -144 vee
FLAG 1264 0 0
FLAG 432 160 vee
FLAG 176 144 vee
FLAG 320 432 0
FLAG -1104 240 0
FLAG -1344 160 KEY
FLAG -1344 256 TUNE
FLAG -800 496 0
FLAG -432 224 0
FLAG -656 -16 VCC
FLAG -352 160 0
FLAG 464 -416 VCC
FLAG 464 -496 0
FLAG 352 -144 0
FLAG -1568 -176 0
FLAG -1456 -176 0
FLAG -1568 -256 KEY
FLAG 896 704 0
FLAG 752 704 0
FLAG 608 704 0
FLAG 464 640 SQUARE
FLAG 480 640 vo2
FLAG -1312 432 0
FLAG -256 64 vcc
FLAG -736 432 vcc
FLAG -1040 144 vcc
FLAG -1040 288 0
FLAG -256 208 0
FLAG -736 576 0
SYMBOL cap 176 -32 R90
WINDOW 0 0 32 VBottom 2
WINDOW 3 32 32 VTop 2
SYMATTR InstName C1
SYMATTR Value 25n
SYMBOL res 16 160 R90
WINDOW 0 0 56 VBottom 2
WINDOW 3 32 56 VTop 2
SYMATTR InstName R2
SYMATTR Value 25k
SYMBOL res 96 160 R0
SYMATTR InstName R3
SYMATTR Value 25k
SYMBOL res 48 320 R0
SYMATTR InstName R4
SYMATTR Value 25k
SYMBOL npn 128 512 M0
SYMATTR InstName Q1
SYMATTR Value 2N2222
SYMBOL res 288 544 R90
WINDOW 0 0 56 VBottom 2
WINDOW 3 32 56 VTop 2
SYMATTR InstName R5
SYMATTR Value 50k
SYMBOL res 480 208 R90
WINDOW 0 0 56 VBottom 2
WINDOW 3 32 56 VTop 2
SYMATTR InstName R6
SYMATTR Value 100k
SYMBOL res 336 400 R180
WINDOW 0 36 76 Left 2
WINDOW 3 36 40 Left 2
SYMATTR InstName R7
SYMATTR Value 25k
SYMBOL res 16 -32 R90
WINDOW 0 0 56 VBottom 2
WINDOW 3 32 56 VTop 2
SYMATTR InstName R1
SYMATTR Value 50k
SYMBOL voltage 928 -128 R0
SYMATTR InstName V1
SYMATTR Value 5
SYMBOL voltage 1056 -128 R0
WINDOW 123 0 0 Left 0
WINDOW 39 0 0 Left 0
SYMATTR InstName V2
SYMATTR Value 4.4545
SYMBOL voltage 1264 -112 R0
SYMATTR InstName V3
SYMATTR Value -5
SYMBOL LT1366 176 48 R0
SYMATTR InstName U1
SYMBOL LT1366 432 64 R0
SYMATTR InstName U2
SYMBOL res -1200 144 R90
WINDOW 0 0 56 VBottom 2
WINDOW 3 32 56 VTop 2
SYMATTR InstName R8
SYMATTR Value 100K
SYMBOL UniversalOpamp2 -1040 176 R0
SYMATTR InstName U3
SYMBOL res -976 16 R90
WINDOW 0 0 56 VBottom 2
WINDOW 3 32 56 VTop 2
SYMATTR InstName R9
SYMATTR Value 1.8K
SYMBOL res -1200 240 R90
WINDOW 0 0 56 VBottom 2
WINDOW 3 32 56 VTop 2
SYMATTR InstName R10
SYMATTR Value 100K
SYMBOL res -1200 336 R90
WINDOW 0 0 56 VBottom 2
WINDOW 3 32 56 VTop 2
SYMATTR InstName R11
SYMATTR Value 100K
SYMBOL npn -720 128 R0
SYMATTR InstName Q2
SYMBOL npn -464 128 M0
SYMATTR InstName Q3
SYMBOL UniversalOpamp2 -736 464 R0
SYMATTR InstName U4
SYMBOL cap -704 304 R90
WINDOW 0 0 32 VBottom 2
WINDOW 3 32 32 VTop 2
SYMATTR InstName C2
SYMATTR Value 1nF
SYMBOL res -608 304 R0
SYMATTR InstName R12
SYMATTR Value 1K
SYMBOL res -672 -32 R0
SYMATTR InstName R13
SYMATTR Value 1Meg
SYMBOL UniversalOpamp2 -256 96 R0
SYMATTR InstName U5
SYMBOL res -192 -64 R90
WINDOW 0 0 56 VBottom 2
WINDOW 3 32 56 VTop 2
SYMATTR InstName R14
SYMATTR Value 30K
SYMBOL UniversalOpamp2 464 -448 M180
SYMATTR InstName U6
SYMBOL res 512 -320 R90
WINDOW 0 0 56 VBottom 2
WINDOW 3 32 56 VTop 2
SYMATTR InstName R15
SYMATTR Value 14K
SYMBOL res 336 -272 R0
SYMATTR InstName R16
SYMATTR Value 1K
SYMBOL voltage -1568 -272 R0
WINDOW 123 0 0 Left 2
WINDOW 39 0 0 Left 2
SYMATTR InstName V6
SYMATTR Value 2.833
SYMBOL voltage -1456 -272 R0
WINDOW 123 0 0 Left 2
WINDOW 39 0 0 Left 2
SYMATTR InstName V7
SYMATTR Value PULSE(0 5 0 1ms 0 0 0)
SYMBOL res 592 624 R90
WINDOW 0 0 56 VBottom 2
WINDOW 3 32 56 VTop 2
SYMATTR InstName R17
SYMATTR Value 6k
SYMBOL res 736 624 R90
WINDOW 0 0 56 VBottom 2
WINDOW 3 32 56 VTop 2
SYMATTR InstName R18
SYMATTR Value 6k
SYMBOL res 880 624 R90
WINDOW 0 0 56 VBottom 2
WINDOW 3 32 56 VTop 2
SYMATTR InstName R19
SYMATTR Value 6k
SYMBOL cap 592 640 R0
SYMATTR InstName C3
SYMATTR Value 60n
SYMBOL cap 736 640 R0
SYMATTR InstName C4
SYMATTR Value 60n
SYMBOL cap 880 640 R0
SYMATTR InstName C5
SYMATTR Value 60n
SYMBOL res -1328 336 R0
SYMATTR InstName R20
SYMATTR Value 5k
SYMBOL voltage -1040 192 R0
WINDOW 123 0 0 Left 2
WINDOW 39 0 0 Left 2
SYMATTR InstName V4
SYMATTR Value -4V
SYMBOL voltage -256 112 R0
SYMATTR InstName V5
SYMATTR Value -4
SYMBOL voltage -736 480 R0
SYMATTR InstName V8
SYMATTR Value -4
SYMBOL just_lfo -1392 352 R0
SYMATTR InstName X1
TEXT -1712 -104 Left 2 !.tran 7 uic
TEXT 1048 296 Left 2 !.options abstol=1e-10
TEXT 1048 328 Left 2 !.options reltol=0.003
TEXT 1048 360 Left 2 !.options cshunt=1e-15
