Version 4
SHEET 1 880 680
WIRE -144 -272 -240 -272
WIRE -48 -272 -80 -272
WIRE 0 -272 -48 -272
WIRE 144 -272 64 -272
WIRE -48 -208 -48 -272
WIRE 208 -208 -48 -208
WIRE -416 -144 -480 -144
WIRE -240 -144 -240 -272
WIRE -240 -144 -416 -144
WIRE -144 -144 -240 -144
WIRE -32 -144 -80 -144
WIRE 0 -144 -32 -144
WIRE 144 -144 64 -144
WIRE -32 16 -32 -144
WIRE 32 16 -32 16
WIRE 144 16 96 16
WIRE 208 16 208 -208
WIRE 208 16 144 16
WIRE -176 80 -192 80
WIRE -80 80 -96 80
WIRE -32 80 -32 16
WIRE -32 80 -80 80
WIRE -16 80 -32 80
WIRE 160 80 112 80
WIRE 112 96 112 80
WIRE 112 96 96 96
WIRE 304 96 272 96
WIRE 368 96 304 96
WIRE -480 112 -480 -144
WIRE -16 112 -48 112
WIRE 144 112 144 16
WIRE 160 112 144 112
WIRE -80 144 -80 80
WIRE -192 160 -192 80
WIRE -192 160 -352 160
WIRE 112 160 112 96
WIRE 112 160 -32 160
WIRE 144 160 144 112
WIRE 288 160 144 160
WIRE -48 176 -48 112
WIRE 112 176 -48 176
WIRE 304 176 304 96
WIRE 304 176 144 176
WIRE -480 208 -480 192
WIRE -32 224 -32 160
WIRE -16 224 -32 224
WIRE 144 224 144 176
WIRE 160 224 144 224
WIRE 112 240 112 176
WIRE 112 240 96 240
WIRE 288 240 288 160
WIRE 288 240 272 240
WIRE 368 240 288 240
WIRE -192 256 -192 160
WIRE -176 256 -192 256
WIRE -80 256 -80 208
WIRE -80 256 -96 256
WIRE -32 256 -80 256
WIRE -16 256 -32 256
WIRE 112 256 112 240
WIRE 160 256 112 256
WIRE -352 272 -352 224
WIRE -32 320 -32 256
WIRE 32 320 -32 320
WIRE 144 320 144 224
WIRE 144 320 96 320
WIRE 272 320 144 320
WIRE -416 464 -416 -144
WIRE -176 464 -416 464
WIRE -144 464 -176 464
WIRE -32 464 -32 320
WIRE -32 464 -80 464
WIRE 32 464 -32 464
WIRE 176 464 96 464
WIRE 272 528 272 320
WIRE 272 528 -16 528
WIRE -176 576 -176 464
WIRE -144 576 -176 576
WIRE -16 576 -16 528
WIRE -16 576 -80 576
WIRE 32 576 -16 576
WIRE 176 576 96 576
FLAG 368 96 OUT1
IOPIN 368 96 Out
FLAG 368 240 OUT2
IOPIN 368 240 Out
FLAG -480 208 0
FLAG 144 -144 0
FLAG 176 464 0
FLAG -352 272 0
FLAG 144 -272 0
FLAG 176 576 0
SYMBOL CD4000\\CD4011B.i 32 32 R0
WINDOW 3 -31 112 Invisible 2
SYMATTR InstName DD1.1
SYMATTR SpiceLine VDD=5  SPEED=2.0  TRIPDT=5e-9
SYMBOL CD4000\\CD4011B.i 32 176 R0
WINDOW 0 -25 113 Left 2
WINDOW 3 -31 112 Invisible 2
SYMATTR InstName DD2.1
SYMBOL CD4000\\CD4011B.i 208 32 R0
WINDOW 0 -31 111 Left 2
WINDOW 3 -31 112 Invisible 2
SYMATTR InstName DD3.1
SYMBOL CD4000\\CD4011B.i 208 176 R0
WINDOW 0 -32 15 Left 2
WINDOW 3 -31 112 Invisible 2
SYMATTR InstName DD4.1
SYMBOL diode 96 0 R90
WINDOW 0 -30 33 VBottom 2
WINDOW 3 -31 36 VTop 2
SYMATTR InstName D1
SYMATTR Value 1N4148
SYMBOL diode 96 304 R90
WINDOW 0 63 33 VBottom 2
WINDOW 3 66 26 VTop 2
SYMATTR InstName D2
SYMATTR Value 1N4148
SYMBOL Misc\\EuropeanResistor -192 96 R270
WINDOW 0 27 56 VTop 2
WINDOW 3 5 56 VBottom 2
SYMATTR InstName R1
SYMATTR Value 100k
SYMBOL Misc\\EuropeanResistor -192 272 R270
WINDOW 0 27 56 VTop 2
WINDOW 3 5 56 VBottom 2
SYMATTR InstName R2
SYMATTR Value 100k
SYMBOL cap -96 144 R0
WINDOW 0 -52 18 Left 2
WINDOW 3 -59 53 Left 2
SYMATTR InstName C1
SYMATTR Value 4.7nF
SYMBOL Misc\\battery -480 96 R0
WINDOW 0 28 89 Left 2
WINDOW 3 27 117 Left 2
SYMATTR InstName V1
SYMATTR Value 5V
SYMBOL diode -80 -160 R90
WINDOW 0 0 32 VBottom 2
WINDOW 3 32 32 VTop 2
SYMATTR InstName D3
SYMATTR Value 1N4148
SYMBOL diode 64 -160 R90
WINDOW 3 32 32 VTop 2
WINDOW 0 0 32 VBottom 2
SYMATTR Value 1N4148
SYMATTR InstName D4
SYMBOL diode 96 480 M270
WINDOW 0 32 32 VTop 2
WINDOW 3 0 32 VBottom 2
SYMATTR InstName D5
SYMATTR Value 1N4148
SYMBOL diode -80 480 M270
WINDOW 0 32 32 VTop 2
WINDOW 3 0 32 VBottom 2
SYMATTR InstName D6
SYMATTR Value 1N4148
SYMBOL Misc\\cell -352 160 R0
WINDOW 0 27 46 Left 2
WINDOW 3 19 80 Left 2
WINDOW 123 0 0 Left 2
WINDOW 39 0 0 Left 2
SYMATTR InstName V2
SYMATTR Value 2.5V
SYMBOL diode -80 -288 R90
WINDOW 0 0 32 VBottom 2
WINDOW 3 32 32 VTop 2
SYMATTR InstName D7
SYMATTR Value 1N4148
SYMBOL diode 64 -288 R90
WINDOW 3 32 32 VTop 2
WINDOW 0 0 32 VBottom 2
SYMATTR Value 1N4148
SYMATTR InstName D8
SYMBOL diode 96 592 M270
WINDOW 0 32 32 VTop 2
WINDOW 3 0 32 VBottom 2
SYMATTR InstName D9
SYMATTR Value 1N4148
SYMBOL diode -80 592 M270
WINDOW 0 32 32 VTop 2
WINDOW 3 0 32 VBottom 2
SYMATTR InstName D10
SYMATTR Value 1N4148
TEXT 288 -40 Left 2 !.tran 0 0.04 0 0.00001
TEXT 280 -8 Left 2 !.lib CD4000.lib
TEXT -240 312 Left 2 ;http://zpostbox.ru
